                                  USG-TRANSPORT USG-TRANSPORT 
       FURTHER  DEVELOPMENTS BASED ON MODFLOW-USG
                       VERSION USG-TRANSPORT VERSION 1.5.0

 LIST FILE: test1.lst
                         UNIT    7

 OPENING test1.bas
 FILE TYPE:BAS6   UNIT    1   STATUS:OLD    
 FORMAT:FORMATTED              ACCESS:SEQUENTIAL          

 OPENING test1.sms
 FILE TYPE:SMS   UNIT   19   STATUS:OLD    
 FORMAT:FORMATTED              ACCESS:SEQUENTIAL          

 OPENING test1.dis
 FILE TYPE:DISU   UNIT   29   STATUS:OLD    
 FORMAT:FORMATTED              ACCESS:SEQUENTIAL          

 OPENING test1.oc
 FILE TYPE:OC   UNIT   22   STATUS:OLD    
 FORMAT:FORMATTED              ACCESS:SEQUENTIAL          

 OPENING test1.wel
 FILE TYPE:WEL   UNIT   12   STATUS:OLD    
 FORMAT:FORMATTED              ACCESS:SEQUENTIAL          

 OPENING test1.lpf
 FILE TYPE:LPF   UNIT   11   STATUS:OLD    
 FORMAT:FORMATTED              ACCESS:SEQUENTIAL          

 OPENING test1.cln
 FILE TYPE:CLN   UNIT  119   STATUS:OLD    
 FORMAT:FORMATTED              ACCESS:SEQUENTIAL          

 OPENING test1_cln.hds
 FILE TYPE:DATA(BINARY)   UNIT   77   STATUS:UNKNOWN
 FORMAT:BINARY                 ACCESS:SEQUENTIAL          

 OPENING test1_cln.con
 FILE TYPE:DATA(BINARY)   UNIT  188   STATUS:UNKNOWN
 FORMAT:BINARY                 ACCESS:SEQUENTIAL          

 OPENING test1.cbcln
 FILE TYPE:DATA(BINARY)   UNIT  144   STATUS:UNKNOWN
 FORMAT:BINARY                 ACCESS:SEQUENTIAL          

 OPENING test1_FlowReduction.dat
 FILE TYPE:DATA   UNIT  166   STATUS:UNKNOWN
 FORMAT:FORMATTED              ACCESS:SEQUENTIAL          

 OPENING test1.bct
 FILE TYPE:BCT   UNIT  120   STATUS:OLD    
 FORMAT:FORMATTED              ACCESS:SEQUENTIAL          

 OPENING test1.ccb
 FILE TYPE:DATA(BINARY)   UNIT  145   STATUS:UNKNOWN
 FORMAT:BINARY                 ACCESS:SEQUENTIAL          

 OPENING test1.con
 FILE TYPE:DATA(BINARY)   UNIT  132   STATUS:UNKNOWN
 FORMAT:BINARY                 ACCESS:SEQUENTIAL          

 OPENING test1.cbb
 FILE TYPE:DATA(BINARY)   UNIT   50   STATUS:UNKNOWN
 FORMAT:BINARY                 ACCESS:SEQUENTIAL          

 OPENING test1.hds
 FILE TYPE:DATA(BINARY)   UNIT   30   STATUS:UNKNOWN
 FORMAT:BINARY                 ACCESS:SEQUENTIAL          

 OPENING test1.ddn
 FILE TYPE:DATA(BINARY)   UNIT   31   STATUS:UNKNOWN
 FORMAT:BINARY                 ACCESS:SEQUENTIAL          

 BAS -- BASIC PACKAGEUSG-TRANSPORT USG-TRANSPORT VERSION 1.5.0              INPUT READ FROM UNIT    1
 
 # MODFLOW-USGs Basic Package                                                    
 # MODFLOW Data Set Created by Groundwater Vistas                                
 #
 THE FREE FORMAT OPTION HAS BEEN SELECTED
 THE UNSTRUCTURED GRID OPTION HAS BEEN SELECTED

 DIS -- UNSTRUCTURED GRID DISCRETIZATION PACKAGE, VERSION 1 : 5/17/2010 - INPUT READ FROM UNIT   29
       1200 NODES         3 NLAY      7360 NJAG  VERT. SUBDISCRETIZATION INDEX, IVSD = -1
 INDEX FOR INPUT OF UNSTRUCTURED, FINITE-VOLUME CONNECTIVITY INFORMATION, IDSYMRD =   0
   20 STRESS PERIOD(S) IN SIMULATION
 MODEL TIME UNIT IS DAYS
 MODEL LENGTH UNIT IS UNDEFINED
  Confining bed flag for each layer:
   0   0   0

 CLN -- CONNECTED LINE NETWORK DISCRETIZATION PROCESS, VERSION 1, 3/3/2012 INPUT READ FROM UNIT  119
 FLAG (0) OR MAXIMUM NUMBER OF LINEAR NODES (NCLN) =      1
 FLAG (-VE) OR NUMBER OF LINEAR NODES (+VE) (ICLNNDS) =     -3
 NUMBER OF LINEAR NODE TO MATRIX GRID CONNECTIONS (NCLNGWC) =      3

 CELL-BY-CELL FLOWS WILL BE SAVED ON UNIT   144(FLAG ICLNCB IS GREATER THAN ZERO)
 CLN HEAD OUTPUT WILL BE SAVED ON UNIT   77(FLAG ICLNHD IS GREATER THAN ZERO)
 CLN DDN OUTPUT WILL NOT BE SAVED OR PRINTED (FLAG ICLNDD IS EQUAL TO ZERO)
 CLN IBOUND OUTPUT WILL NOT BE SAVED OR PRINTED (FLAG ICLNIB IS EQUAL TO ZERO)
 NUMBER OF RECTANGULAR SECTION GEOMETRIES =          0
 CLN CONC OUTPUT WILL BE SAVED ON UNIT  188(FLAG ICLNCN IS GREATER THAN ZERO)



              NODES PER CLN SEGMENT
 READING ON UNIT  119 WITH FORMAT: (FREE)              
         3

                     CONNECTED LINE NETWORK INFORMATION
                    ----------------------------------------
     CLN-NODE NO. CLNTYP ORIENTATION  CLN LENGTH    BOT ELEVATION         FANGLE         IFLIN           ICCWADI
     -----------  ------ ----------- -----------    -------------    -----------        ------    -------
              1      1          0    0.200000E+02    0.200000E+02    0.000000E+00         -1          0
              2      1          0    0.100000E+01    0.190000E+02    0.000000E+00         -1          0
              3      1          0    0.190000E+02    0.000000E+00    0.000000E+00         -1          0

                     CLN TO 3-D GRID CONNECTION INFORMATION
                    ----------------------------------------
     F-NODE NO. GW-NODE NO  EQTN. TYPE        FSKIN           FLENG         FANISO   ICGWADI
     ---------- ---------- -----------     ----------- ----------------- ---------------   ----------
              1        190           0    0.000000E+00    0.200000E+02    0.100000E+01         0
              2        590           0    0.000000E+00    0.100000E+01    0.100000E+01         0
              3        990           0    0.000000E+00    0.190000E+02    0.100000E+01         0

                     CONDUIT NODE INFORMATION
                    ----------------------------------------
     CONDUIT NODE        RADIUS   CONDUIT SAT K
     ------------        ------   -------------
              1    0.150000E+00    0.323000E+11
 

 DIS -- UNSTRUCTURED GRID DISCRETIZATION PACKAGE, VERSION 1 : 5/17/2010 - INPUT READ FROM UNIT   29

   NO. OF NODES PER LAYER =       400



                                TOP FOR LAYER   1
 READING ON UNIT   29 WITH FORMAT: (FREE)              



                                TOP FOR LAYER   2
 READING ON UNIT   29 WITH FORMAT: (FREE)              



                                TOP FOR LAYER   3
 READING ON UNIT   29 WITH FORMAT: (FREE)              



                                BOT FOR LAYER   1
 READING ON UNIT   29 WITH FORMAT: (FREE)              



                                BOT FOR LAYER   2
 READING ON UNIT   29 WITH FORMAT: (FREE)              

                      BOT =   0.00000     FOR LAYER   3

                     AREA =   100.000     FOR LAYER   1



                                 IA
 READING ON UNIT   29 WITH FORMAT: (FREE)              



                                 JA
 READING ON UNIT   29 WITH FORMAT: (FREE)              



               CONNECTION LENGTH 12 FOR LAYER   1
 READING ON UNIT   29 WITH FORMAT: (FREE)              



                 PERPENDICULAR AREA
 READING ON UNIT   29 WITH FORMAT: (FREE)              


 STRESS PERIOD     LENGTH       TIME STEPS     MULTIPLIER FOR DELT    SS FLAG
 ----------------------------------------------------------------------------
        1         30.00000         10                    1.200         TR
        2         30.00000         10                    1.200         TR
        3         30.00000         10                    1.200         TR
        4         30.00000         10                    1.200         TR
        5         30.00000         10                    1.200         TR
        6         30.00000         10                    1.200         TR
        7         30.00000         10                    1.200         TR
        8         30.00000         10                    1.200         TR
        9         30.00000         10                    1.200         TR
       10         30.00000         10                    1.200         TR
       11         30.00000         10                    1.200         TR
       12         30.00000         10                    1.200         TR
       13         30.00000         10                    1.200         TR
       14         30.00000         10                    1.200         TR
       15         30.00000         10                    1.200         TR
       16         30.00000         10                    1.200         TR
       17         30.00000         10                    1.200         TR
       18         30.00000         10                    1.200         TR
       19         30.00000         10                    1.200         TR
       20         30.00000         10                    1.200         TR

 TRANSIENT SIMULATION




           BOUNDARY ARRAY =         1 FOR LAYER   1

           BOUNDARY ARRAY =         1 FOR LAYER   2



                     BOUNDARY ARRAY FOR LAYER   3
 READING ON UNIT    1 WITH FORMAT: (FREE)              

 AQUIFER HEAD WILL BE SET TO   999.00     AT ALL NO-FLOW NODES (IBOUND=0).

             INITIAL HEAD =   80.0000     FOR LAYER   1

             INITIAL HEAD =   80.0000     FOR LAYER   2

             INITIAL HEAD =   80.0000     FOR LAYER   3

 OUTPUT CONTROL IS SPECIFIED EVERY TIME STEP
 HEAD PRINT FORMAT CODE IS   0    DRAWDOWN PRINT FORMAT CODE IS   0        CONC PRINT FORMAT CODE IS   0
 HEADS WILL BE SAVED ON UNIT   30    DRAWDOWNS WILL BE SAVED ON UNIT   31         CONC WILL BE SAVED ON UNIT  132

 LPF -- LAYER-PROPERTY FLOW PACKAGE, VERSION 7, 5/2/2005
         INPUT READ FROM UNIT   11
 # MODFLOW-USG Layer Property Flow (LPF) Package
 CELL-BY-CELL FLOWS WILL BE SAVED ON UNIT   50
 HEAD AT CELLS THAT CONVERT TO DRY= -1.00000E+30
 No named parameters
 IKCFLAG=0, NODAL INPUT OF HY AND CV
 CONSTANTCV OPTION:
 Constant vertical conductance for convertible layers
 NOVFC OPTION:
 Do not apply the vertical flow correction

   LAYER FLAGS:
 LAYER       LAYTYP        LAYAVG         CHANI        LAYVKA        LAYWET
 ---------------------------------------------------------------------------
    1             4             0     1.000E+00             0             0
    2             4             0     1.000E+00             0             0
    3             4             0     1.000E+00             0             0

   INTERPRETATION OF LAYER FLAGS:
                        INTERBLOCK     HORIZONTAL    DATA IN
         LAYER TYPE   TRANSMISSIVITY   ANISOTROPY   ARRAY VKA   WETTABILITY
 LAYER      (LAYTYP)      (LAYAVG)       (CHANI)      (LAYVKA)      (LAYWET)
 ---------------------------------------------------------------------------
    1     UPSTREAM       HARMONIC     1.000E+00    VERTICAL K  NON-WETTABLE
    2     UPSTREAM       HARMONIC     1.000E+00    VERTICAL K  NON-WETTABLE
    3     UPSTREAM       HARMONIC     1.000E+00    VERTICAL K  NON-WETTABLE

 WETTING CAPABILITY IS NOT ACTIVE IN ANY LAYER



              HYD. COND. ALONG ROWS FOR LAYER   1
 READING ON UNIT   11 WITH FORMAT: (FREE)              



                VERTICAL HYD. COND. FOR LAYER   1
 READING ON UNIT   11 WITH FORMAT: (FREE)              



                   SPECIFIC STORAGE FOR LAYER   1
 READING ON UNIT   11 WITH FORMAT: (FREE)              



                     SPECIFIC YIELD FOR LAYER   1
 READING ON UNIT   11 WITH FORMAT: (FREE)              



              HYD. COND. ALONG ROWS FOR LAYER   2
 READING ON UNIT   11 WITH FORMAT: (FREE)              



                VERTICAL HYD. COND. FOR LAYER   2
 READING ON UNIT   11 WITH FORMAT: (FREE)              



                   SPECIFIC STORAGE FOR LAYER   2
 READING ON UNIT   11 WITH FORMAT: (FREE)              



                     SPECIFIC YIELD FOR LAYER   2
 READING ON UNIT   11 WITH FORMAT: (FREE)              



              HYD. COND. ALONG ROWS FOR LAYER   3
 READING ON UNIT   11 WITH FORMAT: (FREE)              



                VERTICAL HYD. COND. FOR LAYER   3
 READING ON UNIT   11 WITH FORMAT: (FREE)              



                   SPECIFIC STORAGE FOR LAYER   3
 READING ON UNIT   11 WITH FORMAT: (FREE)              



                     SPECIFIC YIELD FOR LAYER   3
 READING ON UNIT   11 WITH FORMAT: (FREE)              

 CLN -- CONDUIT DOMAIN FLOW PACKAGE, VERSION 1, 5/17/2010 INPUT READ FROM UNIT  119

  CONDUIT BOUNDARY ARRAY  =         1



              CONDUIT INITIAL HEAD 
 READING ON UNIT  119 WITH FORMAT: (FREE)              

 BCT -- BLOCK-CENTERED TRANSPORT PACKAGE, VER. 8, 9/12/2009
         INPUT READ FROM UNIT120
 # MODFLOW-USG Block-Centered Transport (BCT) Package
 TRANSPORT FLAG (ITRNSP)                             =  1
 C-B-C FLUX FLAG OR UNIT NUMBER (IBCTCB)             =145
 NUMBER OF MOBILE COMPONENTS (MCOMP)                 =  1
 ACTIVE DOMAIN SAME AS FOR FLOW FLAG (IC_IBOUND_FLG) =  1
 TVD SCHEME FLAG AND FCT COUNT (ITVD)                =  0
 ADSORPTION FLAG (IADSORB)                           =  1
 FLAG TO SOLVE FOR TOTAL CONCENTRATION (ICT)         =  0
 CONCENTRATION AT INACTIVE CELLS (CINACT)            =  -1.0000    
 SOLVER TOLERANCE FOR TRANSPORT (CICLOSE)            =  0.10000E-05
 DISPERSION FLAG (IDISP)                             =  1
 CROSS-DISPERSION FLAG (IXDISP)                      =  0
 DIFFUSION COEFFICIENT (DIFFNC)                      =   0.0000    
 ZERO-ORDER DECAY FLAG (IZOD)                        =  0
 FIRST-ORDER DECAY FLAG (IFOD)                       =  0
 FLOW ERROR CORRECTION FLAG OR UNIT NUMBER (IFMBC)   =  0
 INDEX FOR SIMULATION OF HEAT TRANSPORT (IHEAT)      =  0
  NUMBER OF IMMOBILE COMPONENTS  (IMCOMP)             =  0
 INDEX FOR CLN-GW DISPERSION EQUATION (IDISPCLN)     =  0
 NUMBER OF SEQUENTIAL ITERATIONS (NSEQITR)           =  1
  TRANSPORT SIMULATION FOLLOWS FLOW (ITRNSP)         =  1

                 POROSITY =  0.100000     FOR LAYER   1

                 POROSITY =  0.100000     FOR LAYER   2



                           POROSITY FOR LAYER   3
 READING ON UNIT  120 WITH FORMAT: (FREE)              



                       BULK DENSITY FOR LAYER   1
 READING ON UNIT  120 WITH FORMAT: (FREE)              



                       BULK DENSITY FOR LAYER   2
 READING ON UNIT  120 WITH FORMAT: (FREE)              



                       BULK DENSITY FOR LAYER   3
 READING ON UNIT  120 WITH FORMAT: (FREE)              



                         FACE ANGLE
 READING ON UNIT  120 WITH FORMAT: (FREE)              



                  LONG DISPERSIVITY FOR LAYER   1
 READING ON UNIT  120 WITH FORMAT: (FREE)              



                  LONG DISPERSIVITY FOR LAYER   2
 READING ON UNIT  120 WITH FORMAT: (FREE)              

        LONG DISPERSIVITY =   0.00000     FOR LAYER   3

        TRNS DISPERSIVITY =   0.00000     FOR LAYER   1

        TRNS DISPERSIVITY =   0.00000     FOR LAYER   2

        TRNS DISPERSIVITY =   0.00000     FOR LAYER   3
--------------------------------------------------------------------------------
 THE FOLLOWING ARRAYS ARE READ FOR COMPONENT NUMBER   1

   ADSORPTION COEFFICIENT =   0.00000     FOR LAYER   1

   ADSORPTION COEFFICIENT =   0.00000     FOR LAYER   2

   ADSORPTION COEFFICIENT =   0.00000     FOR LAYER   3



                      CONCENTRATION FOR LAYER   1
 READING ON UNIT  120 WITH FORMAT: (FREE)              



                      CONCENTRATION FOR LAYER   2
 READING ON UNIT  120 WITH FORMAT: (FREE)              



                      CONCENTRATION FOR LAYER   3
 READING ON UNIT  120 WITH FORMAT: (FREE)              

 -------------------------------------------------------------------------------------
 READ TRANSPORT PARAMETERS AND INITIAL CONDITIONS FOR CLN NODES
 -------------------------------------------------------------------------------------

 DISP COEF ALONG CLN TUBE =   0.00000    

 DISP COEF FOR CLN-MATRIX =   0.00000    
--------------------------------------------------------------------------------
 THE FOLLOWING ARRAYS ARE READ FOR COMPONENT NUMBER   1



                INITIAL CONC IN CLN
 READING ON UNIT  119 WITH FORMAT: (FREE)              

 WEL -- WELL PACKAGE, VERSION 7, 5/2/2005 INPUT READ FROM UNIT   12
 No named parameters
 MAXIMUM OF      1 ACTIVE WELLS AT ONE TIME
 CELL-BY-CELL FLOWS WILL BE SAVED ON UNIT   50
 MAXIMUM NUMBER OF ACTIVE WELLS (MXACTW) =      1
 C-B-C FLUX FLAG OR UNIT NUMBER (IWELCB) =  50
 WELL FLUX WILL BE REDUCED WHEN SATURATED THICKNESS IS LESS THAN 1 PERCENT OF CELL THICKNESS
 WELL REDUCTION INFO WILL BE WRITTEN TO UNIT:   166
 AUXILIARY WELL VARIABLE: C01             


     0 Well parameters

 SMS -- SPARSE MATRIX SOLVER PACKAGE, VERSION 7, 5/2/2005
         INPUT READ FROM UNIT 19
 No named parameters
  ALL SOLVER INPUT DATA WILL BE READ FROM THE SOLVER INPUT FILE. 
 OUTER ITERATION CONVERGENCE CRITERION (HCLOSE) =    0.100000E-02
 INNER ITERATION CONVERGENCE CRITERION (HICLOSE) =    0.100000E-04
 MAXIMUM NUMBER OF OUTER ITERATIONS (MXITER)     =       250
 MAXIMUM NUMBER OF INNER ITERATIONS (ITER1)      =       600
 SOLVER PRINTOUT INDEX             (IPRSMS)      =         1
 NONLINEAR ITERATION METHOD    (NONLINMETH)      =         1
 LINEAR SOLUTION METHOD           (LINMETH)      =         1
 D-B-D WEIGHT REDUCTION FACTOR      (THETA)      =    0.700000E+00
 D-B-D WEIGHT INCREASE INCREMENT    (KAPPA)      =    0.700000E-01
 D-B-D PREVIOUS HISTORY FACTOR      (GAMMA)      =    0.100000E+00
 MOMENTUM TERM                  (AMOMENTUM)      =    0.000000E+00
 MAXIMUM NUMBER OF BACKTRACKS    (NUMTRACK)      =       200
 BACKTRACKING TOLERANCE FACTOR       (BTOL)      =    0.110000E+01
 BACKTRACKING REDUCTION FACTOR     (BREDUC)      =    0.200000E+00
 BACKTRACKING REIDUAL LIMIT       (RES_LIM)      =    0.100000E+01
 ***Newton Linearization will be used***
 
 ***XMD linear solver will be used***
 XMD -- LINEAR SOLUTION BY XMD PACKAGE VERSION 1.30
     BY MOTOMU IBARAKI, OHIO STATE UNIVERSITY, COLOMBUS, OH
                 INPUT READ FROM UNIT 19
 ACCELERATION METHOD                    (IACL) =         1
 EQUATION ORDERING FLAG               (NORDER) =         0
 LEVEL OF FILL                         (LEVEL) =         7
 MAXIMUM NUMBER OF ORTHOGONALIZATIONS  (NORTH) =        14
 INDEX FOR USING REDUCED SYSTEM      (IREDSYS) =         0
 RESID. REDUCTION CONVERGE CRITERION  (RRCTOL) =  0.000000E+00
 INDEX FOR USING DROP TOLERANCE     (IDROPTOL) =         1
 DROP TOLERANCE VALUE                 ((EPSRN) =  0.100000E-02
 
1
                            STRESS PERIOD NO.    1, LENGTH =   30.00000    
                            -----------------------------------------------

                              NUMBER OF TIME STEPS =        10

                               MULTIPLIER FOR DELT =     1.200

                            INITIAL TIME STEP SIZE =   1.155682    

 WEL -- WELL PACKAGE, VERSION 7, 5/2/2005 INPUT READ FROM UNIT   12

 WELL NO.  CLN-NODE       STRESS FACTOR         C01             
 ---------------------------------------------------------------
        1            3      -5.000           0.000           0.000    

      1 WELL 
 -------------------------------------------------------------------------------------
 
 SOLVING FOR HEAD 

 Outer-Iteration  Inner-Iteration  Backtracking  Number of        Incoming       Outgoing  Maximum HeadChange      Maximum Head Change
     Number           Count           Flag       Backtracks       Residual       Residual           Value              Location
        1                             0             0           25.0000          25.0000    
        1                5                                                                        -5.90203                   190           GWF-node number
        1                5                                                                        -14.9791                     3           CLN-node number
        2                             0             0          0.601088E-13     0.601088E-13
        2                1                                                                        0.309795E-08               611           GWF-node number
        2                1                                                                        0.262932E-08                 2           CLN-node number


     2 CALLS TO SPARSE MATRIX SOLVER PACKAGE  IN FLOW TIME STEP       1 STRESS PERIOD       1

 TOTAL OF       2OUTER ITERATIONS
  MAXIMUM CHANGE FOR EACH ITERATION:
   MAX. CHANGE        NODE  MAX. CHANGE        NODE  MAX. CHANGE        NODE  MAX. CHANGE        NODE  MAX. CHANGE        NODE
 ------------------------------------------------------------------------------------------------------------------------------------
   -5.9020    ,        190  0.30980E-08,        611

  MAXIMUM CHANGE FOR CLN NODE AT EACH ITERATION:
   MAX. CHANGE    CLN-CELL  MAX. CHANGE    CLN-CELL  MAX. CHANGE    CLN-CELL  MAX. CHANGE    CLN-CELL  MAX. CHANGE    CLN-CELL
 ------------------------------------------------------------------------------------------------------------------------------------
   -14.979    ,          3  0.26293E-08,          2

 HEAD/DRAWDOWN PRINTOUT FLAG = 1     TOTAL BUDGET PRINTOUT FLAG = 1
 CELL-BY-CELL FLOW TERM FLAG = 1
 CONCENTRATION PRINTOUT FLAG = 1

 OUTPUT FLAGS FOR ALL LAYERS ARE THE SAME:
   HEAD    DRAWDOWN  HEAD  DRAWDOWN    CONC    CONC
 PRINTOUT  PRINTOUT  SAVE    SAVE    PRINTOUT  SAVE
 ---------------------------------------------------
     0         0       1       1       0       1
 UBUDSVU SAVING "         STORAGE" ON UNIT  50 AT TIME STEP      1, STRESS PERIOD      1
 UBUDSV SAVING "     CLN STORAGE" ON UNIT 144 AT TIME STEP      1, STRESS PERIOD       1
 UBUDSVU SAVING "   CONSTANT HEAD" ON UNIT  50 AT TIME STEP      1, STRESS PERIOD      1
 UBUDSVU SAVING "   FLOW JA FACE " ON UNIT  50 AT TIME STEP      1, STRESS PERIOD      1
 UBUDSVU SAVING "             CLN" ON UNIT  50 AT TIME STEP      1, STRESS PERIOD      1
 UBUDSVU SAVING "  CLN CONST HEAD" ON UNIT 144 AT TIME STEP      1, STRESS PERIOD      1
 UBUDSVU SAVING "   FLOW CLN FACE" ON UNIT 144 AT TIME STEP      1, STRESS PERIOD      1
 UBUDSVU SAVING "             GWF" ON UNIT 144 AT TIME STEP      1, STRESS PERIOD      1
 UBUDSVU SAVING "           WELLS" ON UNIT  50 AT TIME STEP      1, STRESS PERIOD      1
 UBUDSVU SAVING "           WELLS" ON UNIT 144 AT TIME STEP      1, STRESS PERIOD      1

 HEAD WILL BE SAVED ON UNIT       30 AT END OF TIME STEP        1, STRESS PERIOD        1

 DRAWDOWN WILL BE SAVED ON UNIT   31 AT END OF TIME STEP   1, STRESS PERIOD    1

 CLN HEAD WILL BE SAVED ON UNIT   77 AT END OF TIME STEP   1, STRESS PERIOD    1
1
  VOLUMETRIC BUDGET FOR ENTIRE MODEL AT END OF TIME STEP       1 IN STRESS PERIOD       1
  ---------------------------------------------------------------------------------------

     CUMULATIVE VOLUMES      L**3       RATES FOR THIS TIME STEP      L**3/T
     ------------------                 ------------------------

           IN:                                      IN:
           ---                                      ---
             STORAGE =           5.7784               STORAGE =           5.0000
         CLN STORAGE =           0.0000           CLN STORAGE =           0.0000
       CONSTANT HEAD =           0.0000         CONSTANT HEAD =           0.0000
      CLN CONST HEAD =           0.0000        CLN CONST HEAD =           0.0000
               WELLS =           0.0000                 WELLS =           0.0000

            TOTAL IN =           5.7784              TOTAL IN =           5.0000

          OUT:                                     OUT:
          ----                                     ----
             STORAGE =           0.0000               STORAGE =           0.0000
         CLN STORAGE =           0.0000           CLN STORAGE =           0.0000
       CONSTANT HEAD =           0.0000         CONSTANT HEAD =           0.0000
      CLN CONST HEAD =           0.0000        CLN CONST HEAD =           0.0000
               WELLS =           5.7784                 WELLS =           5.0000

           TOTAL OUT =           5.7784             TOTAL OUT =           5.0000

            IN - OUT =      -8.5333E-08              IN - OUT =      -7.3837E-08

 PERCENT DISCREPANCY =          -0.00     PERCENT DISCREPANCY =          -0.00






          TIME SUMMARY AT END OF TIME STEP         1 IN STRESS PERIOD         1
                    SECONDS     MINUTES      HOURS       DAYS        YEARS
                    -----------------------------------------------------------
   TIME STEP LENGTH  99851.      1664.2      27.736      1.1557     3.16409E-03
 STRESS PERIOD TIME  99851.      1664.2      27.736      1.1557     3.16409E-03
         TOTAL TIME  99851.      1664.2      27.736      1.1557     3.16409E-03
1
 ------------------------------------------------------------------------------------------------------------
 
 SOLVING FOR TRANSPORT 

     INITIAL MASS OF COMPONENTS IN MOBILE DOMAIN
     --------------------------------------------
     COMPONENT INDEX     INITIAL MASS
     ---------------     ------------
              1        0.168076E+05

     INITIAL MASS OF COMPONENTS IN CLN DOMAIN
     -----------------------------------------
     COMPONENT INDEX     INITIAL MASS
     ---------------     ------------
              1        0.000000E+00

 ------------------------------------------------------------------------------------------------------------------------
     1 CALLS TO SPARSE MATRIX SOLVER PACKAGE IN TRANSPORT TIME STEP       1 STRESS PERIOD       1 SPECIES  1

 TOTAL OF       1OUTER ITERATIONS
  MAXIMUM CHANGE FOR EACH ITERATION:
   MAX. CHANGE        NODE  MAX. CHANGE        NODE  MAX. CHANGE        NODE  MAX. CHANGE        NODE  MAX. CHANGE        NODE
 ------------------------------------------------------------------------------------------------------------------------------------
   0.11033E-12,        191

  MAXIMUM CHANGE FOR CLN NODE AT EACH ITERATION:
   MAX. CHANGE    CLN-CELL  MAX. CHANGE    CLN-CELL  MAX. CHANGE    CLN-CELL  MAX. CHANGE    CLN-CELL  MAX. CHANGE    CLN-CELL
 ------------------------------------------------------------------------------------------------------------------------------------
   0.78327E-01,          1
     TRANSPORT SOLUTION COMPLETE FOR COMPONENT SPECIES NUMBER    1
     ------------------------------------------------------------
 UBUDSVU SAVING "    MASS STORAGE" ON UNIT 145 AT TIME STEP      1, STRESS PERIOD      1
 UBUDSVU SAVING "CLN MASS STORAGE" ON UNIT 145 AT TIME STEP      1, STRESS PERIOD      1
 UBUDSVU SAVING "CNST H MASS FLUX" ON UNIT 145 AT TIME STEP      1, STRESS PERIOD      1
 UBUDSVU SAVING "  WELL MASS FLUX" ON UNIT 145 AT TIME STEP      1, STRESS PERIOD      1

 TRANSPORT SOLUTION COMPLETE FOR ALL SPECIES, SORTING OUTPUT FOR CONCENTRATIONS AND MASS BALANCE
 ----------------------------------------------------------------------------------------------------
     TRANSPORT OUTPUT FOR COMPONENT SPECIES NUMBER    1
     ------------------------------------------------------------

 CONC WILL BE SAVED ON UNIT  132 AT END OF TIME STEP        1, STRESS PERIOD        1

 CLN CONC WILL BE SAVED ON UNIT  188 AT END OF TIME STEP   1, STRESS PERIOD    1
1
  VOLUMETRIC BUDGET FOR ENTIRE MODEL AT END OF TIME STEP       1 IN STRESS PERIOD       1
  ---------------------------------------------------------------------------------------

     CUMULATIVE VOLUMES      L**3       RATES FOR THIS TIME STEP      L**3/T
     ------------------                 ------------------------

           IN:                                      IN:
           ---                                      ---
        MASS STORAGE =           0.5778          MASS STORAGE =           0.5000
    CNST H MASS FLUX =           0.0000      CNST H MASS FLUX =           0.0000
      WELL MASS FLUX =           0.0000        WELL MASS FLUX =           0.0000

            TOTAL IN =           0.5778              TOTAL IN =           0.5000

          OUT:                                     OUT:
          ----                                     ----
        MASS STORAGE =           0.2033          MASS STORAGE =           0.1759
    CNST H MASS FLUX =           0.0000      CNST H MASS FLUX =           0.0000
      WELL MASS FLUX =           0.3746        WELL MASS FLUX =           0.3241

           TOTAL OUT =           0.5778             TOTAL OUT =           0.5000

            IN - OUT =      -1.6653E-15              IN - OUT =       1.4901E-08

 PERCENT DISCREPANCY =          -0.00     PERCENT DISCREPANCY =           0.00






          TIME SUMMARY AT END OF TIME STEP         1 IN STRESS PERIOD         1
                    SECONDS     MINUTES      HOURS       DAYS        YEARS
                    -----------------------------------------------------------
   TIME STEP LENGTH  99851.      1664.2      27.736      1.1557     3.16409E-03
 STRESS PERIOD TIME  99851.      1664.2      27.736      1.1557     3.16409E-03
         TOTAL TIME  99851.      1664.2      27.736      1.1557     3.16409E-03
1
 -------------------------------------------------------------------------------------
 
 SOLVING FOR HEAD 

 Outer-Iteration  Inner-Iteration  Backtracking  Number of        Incoming       Outgoing  Maximum HeadChange      Maximum Head Change
     Number           Count           Flag       Backtracks       Residual       Residual           Value              Location
        1                             0             0           1.69282          1.69282    
        1                5                                                                        -2.16782                   190           GWF-node number
        1                5                                                                        -2.15799                     1           CLN-node number
        2                             0             0          0.821556E-14     0.821556E-14
        2                1                                                                        0.461453E-07               190           GWF-node number
        2                1                                                                        0.129900E-06                 2           CLN-node number
     2 CALLS TO SPARSE MATRIX SOLVER PACKAGE  IN FLOW TIME STEP       2 STRESS PERIOD       1

 TOTAL OF       2OUTER ITERATIONS
  MAXIMUM CHANGE FOR EACH ITERATION:
   MAX. CHANGE        NODE  MAX. CHANGE        NODE  MAX. CHANGE        NODE  MAX. CHANGE        NODE  MAX. CHANGE        NODE
 ------------------------------------------------------------------------------------------------------------------------------------
   -2.1678    ,        190  0.46145E-07,        190

  MAXIMUM CHANGE FOR CLN NODE AT EACH ITERATION:
   MAX. CHANGE    CLN-CELL  MAX. CHANGE    CLN-CELL  MAX. CHANGE    CLN-CELL  MAX. CHANGE    CLN-CELL  MAX. CHANGE    CLN-CELL
 ------------------------------------------------------------------------------------------------------------------------------------
   -2.1580    ,          1  0.12990E-06,          2

 HEAD/DRAWDOWN PRINTOUT FLAG = 1     TOTAL BUDGET PRINTOUT FLAG = 1
 CELL-BY-CELL FLOW TERM FLAG = 1
 CONCENTRATION PRINTOUT FLAG = 1

 OUTPUT FLAGS FOR ALL LAYERS ARE THE SAME:
   HEAD    DRAWDOWN  HEAD  DRAWDOWN    CONC    CONC
 PRINTOUT  PRINTOUT  SAVE    SAVE    PRINTOUT  SAVE
 ---------------------------------------------------
     0         0       1       1       0       1
 UBUDSVU SAVING "         STORAGE" ON UNIT  50 AT TIME STEP      2, STRESS PERIOD      1
 UBUDSV SAVING "     CLN STORAGE" ON UNIT 144 AT TIME STEP      2, STRESS PERIOD       1
 UBUDSVU SAVING "   CONSTANT HEAD" ON UNIT  50 AT TIME STEP      2, STRESS PERIOD      1
 UBUDSVU SAVING "   FLOW JA FACE " ON UNIT  50 AT TIME STEP      2, STRESS PERIOD      1
 UBUDSVU SAVING "             CLN" ON UNIT  50 AT TIME STEP      2, STRESS PERIOD      1
 UBUDSVU SAVING "  CLN CONST HEAD" ON UNIT 144 AT TIME STEP      2, STRESS PERIOD      1
 UBUDSVU SAVING "   FLOW CLN FACE" ON UNIT 144 AT TIME STEP      2, STRESS PERIOD      1
 UBUDSVU SAVING "             GWF" ON UNIT 144 AT TIME STEP      2, STRESS PERIOD      1
 UBUDSVU SAVING "           WELLS" ON UNIT  50 AT TIME STEP      2, STRESS PERIOD      1
 UBUDSVU SAVING "           WELLS" ON UNIT 144 AT TIME STEP      2, STRESS PERIOD      1

 HEAD WILL BE SAVED ON UNIT       30 AT END OF TIME STEP        2, STRESS PERIOD        1

 DRAWDOWN WILL BE SAVED ON UNIT   31 AT END OF TIME STEP   2, STRESS PERIOD    1

 CLN HEAD WILL BE SAVED ON UNIT   77 AT END OF TIME STEP   2, STRESS PERIOD    1
1
  VOLUMETRIC BUDGET FOR ENTIRE MODEL AT END OF TIME STEP       2 IN STRESS PERIOD       1
  ---------------------------------------------------------------------------------------

     CUMULATIVE VOLUMES      L**3       RATES FOR THIS TIME STEP      L**3/T
     ------------------                 ------------------------

           IN:                                      IN:
           ---                                      ---
             STORAGE =          12.7125               STORAGE =           5.0000
         CLN STORAGE =           0.0000           CLN STORAGE =           0.0000
       CONSTANT HEAD =           0.0000         CONSTANT HEAD =           0.0000
      CLN CONST HEAD =           0.0000        CLN CONST HEAD =           0.0000
               WELLS =           0.0000                 WELLS =           0.0000

            TOTAL IN =          12.7125              TOTAL IN =           5.0000

          OUT:                                     OUT:
          ----                                     ----
             STORAGE =           0.0000               STORAGE =           0.0000
         CLN STORAGE =           0.0000           CLN STORAGE =           0.0000
       CONSTANT HEAD =           0.0000         CONSTANT HEAD =           0.0000
      CLN CONST HEAD =           0.0000        CLN CONST HEAD =           0.0000
               WELLS =          12.7125                 WELLS =           5.0000

           TOTAL OUT =          12.7125             TOTAL OUT =           5.0000

            IN - OUT =       2.7434E-08              IN - OUT =       8.1313E-08

 PERCENT DISCREPANCY =           0.00     PERCENT DISCREPANCY =           0.00






          TIME SUMMARY AT END OF TIME STEP         2 IN STRESS PERIOD         1
                    SECONDS     MINUTES      HOURS       DAYS        YEARS
                    -----------------------------------------------------------
   TIME STEP LENGTH 1.19821E+05  1997.0      33.284      1.3868     3.79690E-03
 STRESS PERIOD TIME 2.19672E+05  3661.2      61.020      2.5425     6.96099E-03
         TOTAL TIME 2.19672E+05  3661.2      61.020      2.5425     6.96099E-03
1
 ------------------------------------------------------------------------------------------------------------
 
 SOLVING FOR TRANSPORT 

 ------------------------------------------------------------------------------------------------------------------------
     1 CALLS TO SPARSE MATRIX SOLVER PACKAGE IN TRANSPORT TIME STEP       2 STRESS PERIOD       1 SPECIES  1

 TOTAL OF       1OUTER ITERATIONS
  MAXIMUM CHANGE FOR EACH ITERATION:
   MAX. CHANGE        NODE  MAX. CHANGE        NODE  MAX. CHANGE        NODE  MAX. CHANGE        NODE  MAX. CHANGE        NODE
 ------------------------------------------------------------------------------------------------------------------------------------
   0.65339E-11,        191

  MAXIMUM CHANGE FOR CLN NODE AT EACH ITERATION:
   MAX. CHANGE    CLN-CELL  MAX. CHANGE    CLN-CELL  MAX. CHANGE    CLN-CELL  MAX. CHANGE    CLN-CELL  MAX. CHANGE    CLN-CELL
 ------------------------------------------------------------------------------------------------------------------------------------
   0.26302E-01,          3
     TRANSPORT SOLUTION COMPLETE FOR COMPONENT SPECIES NUMBER    1
     ------------------------------------------------------------
 UBUDSVU SAVING "    MASS STORAGE" ON UNIT 145 AT TIME STEP      2, STRESS PERIOD      1
 UBUDSVU SAVING "CLN MASS STORAGE" ON UNIT 145 AT TIME STEP      2, STRESS PERIOD      1
 UBUDSVU SAVING "CNST H MASS FLUX" ON UNIT 145 AT TIME STEP      2, STRESS PERIOD      1
 UBUDSVU SAVING "  WELL MASS FLUX" ON UNIT 145 AT TIME STEP      2, STRESS PERIOD      1

 TRANSPORT SOLUTION COMPLETE FOR ALL SPECIES, SORTING OUTPUT FOR CONCENTRATIONS AND MASS BALANCE
 ----------------------------------------------------------------------------------------------------
     TRANSPORT OUTPUT FOR COMPONENT SPECIES NUMBER    1
     ------------------------------------------------------------

 CONC WILL BE SAVED ON UNIT  132 AT END OF TIME STEP        2, STRESS PERIOD        1

 CLN CONC WILL BE SAVED ON UNIT  188 AT END OF TIME STEP   2, STRESS PERIOD    1
1
  VOLUMETRIC BUDGET FOR ENTIRE MODEL AT END OF TIME STEP       2 IN STRESS PERIOD       1
  ---------------------------------------------------------------------------------------

     CUMULATIVE VOLUMES      L**3       RATES FOR THIS TIME STEP      L**3/T
     ------------------                 ------------------------

           IN:                                      IN:
           ---                                      ---
        MASS STORAGE =           1.2713          MASS STORAGE =           0.5000
    CNST H MASS FLUX =           0.0000      CNST H MASS FLUX =           0.0000
      WELL MASS FLUX =           0.0000        WELL MASS FLUX =           0.0000

            TOTAL IN =           1.2713              TOTAL IN =           0.5000

          OUT:                                     OUT:
          ----                                     ----
        MASS STORAGE =           0.2648          MASS STORAGE =       4.4363E-02
    CNST H MASS FLUX =           0.0000      CNST H MASS FLUX =           0.0000
      WELL MASS FLUX =           1.0065        WELL MASS FLUX =           0.4556

           TOTAL OUT =           1.2713             TOTAL OUT =           0.5000

            IN - OUT =      -6.5947E-14              IN - OUT =      -1.1176E-08

 PERCENT DISCREPANCY =          -0.00     PERCENT DISCREPANCY =          -0.00






          TIME SUMMARY AT END OF TIME STEP         2 IN STRESS PERIOD         1
                    SECONDS     MINUTES      HOURS       DAYS        YEARS
                    -----------------------------------------------------------
   TIME STEP LENGTH 1.19821E+05  1997.0      33.284      1.3868     3.79690E-03
 STRESS PERIOD TIME 2.19672E+05  3661.2      61.020      2.5425     6.96099E-03
         TOTAL TIME 2.19672E+05  3661.2      61.020      2.5425     6.96099E-03
1
 -------------------------------------------------------------------------------------
 
 SOLVING FOR HEAD 

 Outer-Iteration  Inner-Iteration  Backtracking  Number of        Incoming       Outgoing  Maximum HeadChange      Maximum Head Change
     Number           Count           Flag       Backtracks       Residual       Residual           Value              Location
        1                             0             0          0.520378         0.520378    
        1                6                                                                        -1.57413                   990           GWF-node number
        1                6                                                                        -1.20967                     1           CLN-node number
        2                             0             0          0.276946E-14     0.276946E-14
        2                1                                                                       -0.684899E-07               190           GWF-node number
        2                1                                                                       -0.182478E-06                 3           CLN-node number
     2 CALLS TO SPARSE MATRIX SOLVER PACKAGE  IN FLOW TIME STEP       3 STRESS PERIOD       1

 TOTAL OF       2OUTER ITERATIONS
  MAXIMUM CHANGE FOR EACH ITERATION:
   MAX. CHANGE        NODE  MAX. CHANGE        NODE  MAX. CHANGE        NODE  MAX. CHANGE        NODE  MAX. CHANGE        NODE
 ------------------------------------------------------------------------------------------------------------------------------------
   -1.5741    ,        990 -0.68490E-07,        190

  MAXIMUM CHANGE FOR CLN NODE AT EACH ITERATION:
   MAX. CHANGE    CLN-CELL  MAX. CHANGE    CLN-CELL  MAX. CHANGE    CLN-CELL  MAX. CHANGE    CLN-CELL  MAX. CHANGE    CLN-CELL
 ------------------------------------------------------------------------------------------------------------------------------------
   -1.2097    ,          1 -0.18248E-06,          3

 HEAD/DRAWDOWN PRINTOUT FLAG = 1     TOTAL BUDGET PRINTOUT FLAG = 1
 CELL-BY-CELL FLOW TERM FLAG = 1
 CONCENTRATION PRINTOUT FLAG = 1

 OUTPUT FLAGS FOR ALL LAYERS ARE THE SAME:
   HEAD    DRAWDOWN  HEAD  DRAWDOWN    CONC    CONC
 PRINTOUT  PRINTOUT  SAVE    SAVE    PRINTOUT  SAVE
 ---------------------------------------------------
     0         0       1       1       0       1
 UBUDSVU SAVING "         STORAGE" ON UNIT  50 AT TIME STEP      3, STRESS PERIOD      1
 UBUDSV SAVING "     CLN STORAGE" ON UNIT 144 AT TIME STEP      3, STRESS PERIOD       1
 UBUDSVU SAVING "   CONSTANT HEAD" ON UNIT  50 AT TIME STEP      3, STRESS PERIOD      1
 UBUDSVU SAVING "   FLOW JA FACE " ON UNIT  50 AT TIME STEP      3, STRESS PERIOD      1
 UBUDSVU SAVING "             CLN" ON UNIT  50 AT TIME STEP      3, STRESS PERIOD      1
 UBUDSVU SAVING "  CLN CONST HEAD" ON UNIT 144 AT TIME STEP      3, STRESS PERIOD      1
 UBUDSVU SAVING "   FLOW CLN FACE" ON UNIT 144 AT TIME STEP      3, STRESS PERIOD      1
 UBUDSVU SAVING "             GWF" ON UNIT 144 AT TIME STEP      3, STRESS PERIOD      1
 UBUDSVU SAVING "           WELLS" ON UNIT  50 AT TIME STEP      3, STRESS PERIOD      1
 UBUDSVU SAVING "           WELLS" ON UNIT 144 AT TIME STEP      3, STRESS PERIOD      1

 HEAD WILL BE SAVED ON UNIT       30 AT END OF TIME STEP        3, STRESS PERIOD        1

 DRAWDOWN WILL BE SAVED ON UNIT   31 AT END OF TIME STEP   3, STRESS PERIOD    1

 CLN HEAD WILL BE SAVED ON UNIT   77 AT END OF TIME STEP   3, STRESS PERIOD    1
1
  VOLUMETRIC BUDGET FOR ENTIRE MODEL AT END OF TIME STEP       3 IN STRESS PERIOD       1
  ---------------------------------------------------------------------------------------

     CUMULATIVE VOLUMES      L**3       RATES FOR THIS TIME STEP      L**3/T
     ------------------                 ------------------------

           IN:                                      IN:
           ---                                      ---
             STORAGE =          21.0334               STORAGE =           5.0000
         CLN STORAGE =           0.0000           CLN STORAGE =           0.0000
       CONSTANT HEAD =           0.0000         CONSTANT HEAD =           0.0000
      CLN CONST HEAD =           0.0000        CLN CONST HEAD =           0.0000
               WELLS =           0.0000                 WELLS =           0.0000

            TOTAL IN =          21.0334              TOTAL IN =           5.0000

          OUT:                                     OUT:
          ----                                     ----
             STORAGE =           0.0000               STORAGE =           0.0000
         CLN STORAGE =           0.0000           CLN STORAGE =           0.0000
       CONSTANT HEAD =           0.0000         CONSTANT HEAD =           0.0000
      CLN CONST HEAD =           0.0000        CLN CONST HEAD =           0.0000
               WELLS =          21.0334                 WELLS =           5.0000

           TOTAL OUT =          21.0334             TOTAL OUT =           5.0000

            IN - OUT =       3.1373E-08              IN - OUT =       2.3671E-09

 PERCENT DISCREPANCY =           0.00     PERCENT DISCREPANCY =           0.00






          TIME SUMMARY AT END OF TIME STEP         3 IN STRESS PERIOD         1
                    SECONDS     MINUTES      HOURS       DAYS        YEARS
                    -----------------------------------------------------------
   TIME STEP LENGTH 1.43785E+05  2396.4      39.940      1.6642     4.55628E-03
 STRESS PERIOD TIME 3.63458E+05  6057.6      100.96      4.2067     1.15173E-02
         TOTAL TIME 3.63458E+05  6057.6      100.96      4.2067     1.15173E-02
1
 ------------------------------------------------------------------------------------------------------------
 
 SOLVING FOR TRANSPORT 

 ------------------------------------------------------------------------------------------------------------------------
     1 CALLS TO SPARSE MATRIX SOLVER PACKAGE IN TRANSPORT TIME STEP       3 STRESS PERIOD       1 SPECIES  1

 TOTAL OF       1OUTER ITERATIONS
  MAXIMUM CHANGE FOR EACH ITERATION:
   MAX. CHANGE        NODE  MAX. CHANGE        NODE  MAX. CHANGE        NODE  MAX. CHANGE        NODE  MAX. CHANGE        NODE
 ------------------------------------------------------------------------------------------------------------------------------------
  -0.11367E-10,        191

  MAXIMUM CHANGE FOR CLN NODE AT EACH ITERATION:
   MAX. CHANGE    CLN-CELL  MAX. CHANGE    CLN-CELL  MAX. CHANGE    CLN-CELL  MAX. CHANGE    CLN-CELL  MAX. CHANGE    CLN-CELL
 ------------------------------------------------------------------------------------------------------------------------------------
   0.71143E-02,          3
     TRANSPORT SOLUTION COMPLETE FOR COMPONENT SPECIES NUMBER    1
     ------------------------------------------------------------
 UBUDSVU SAVING "    MASS STORAGE" ON UNIT 145 AT TIME STEP      3, STRESS PERIOD      1
 UBUDSVU SAVING "CLN MASS STORAGE" ON UNIT 145 AT TIME STEP      3, STRESS PERIOD      1
 UBUDSVU SAVING "CNST H MASS FLUX" ON UNIT 145 AT TIME STEP      3, STRESS PERIOD      1
 UBUDSVU SAVING "  WELL MASS FLUX" ON UNIT 145 AT TIME STEP      3, STRESS PERIOD      1

 TRANSPORT SOLUTION COMPLETE FOR ALL SPECIES, SORTING OUTPUT FOR CONCENTRATIONS AND MASS BALANCE
 ----------------------------------------------------------------------------------------------------
     TRANSPORT OUTPUT FOR COMPONENT SPECIES NUMBER    1
     ------------------------------------------------------------

 CONC WILL BE SAVED ON UNIT  132 AT END OF TIME STEP        3, STRESS PERIOD        1

 CLN CONC WILL BE SAVED ON UNIT  188 AT END OF TIME STEP   3, STRESS PERIOD    1
1
  VOLUMETRIC BUDGET FOR ENTIRE MODEL AT END OF TIME STEP       3 IN STRESS PERIOD       1
  ---------------------------------------------------------------------------------------

     CUMULATIVE VOLUMES      L**3       RATES FOR THIS TIME STEP      L**3/T
     ------------------                 ------------------------

           IN:                                      IN:
           ---                                      ---
        MASS STORAGE =           2.1033          MASS STORAGE =           0.5000
    CNST H MASS FLUX =           0.0000      CNST H MASS FLUX =           0.0000
      WELL MASS FLUX =           0.0000        WELL MASS FLUX =           0.0000

            TOTAL IN =           2.1033              TOTAL IN =           0.5000

          OUT:                                     OUT:
          ----                                     ----
        MASS STORAGE =           0.2794          MASS STORAGE =       8.7915E-03
    CNST H MASS FLUX =           0.0000      CNST H MASS FLUX =           0.0000
      WELL MASS FLUX =           1.8239        WELL MASS FLUX =           0.4912

           TOTAL OUT =           2.1033             TOTAL OUT =           0.5000

            IN - OUT =      -9.6811E-14              IN - OUT =      -8.3819E-09

 PERCENT DISCREPANCY =          -0.00     PERCENT DISCREPANCY =          -0.00






          TIME SUMMARY AT END OF TIME STEP         3 IN STRESS PERIOD         1
                    SECONDS     MINUTES      HOURS       DAYS        YEARS
                    -----------------------------------------------------------
   TIME STEP LENGTH 1.43785E+05  2396.4      39.940      1.6642     4.55628E-03
 STRESS PERIOD TIME 3.63458E+05  6057.6      100.96      4.2067     1.15173E-02
         TOTAL TIME 3.63458E+05  6057.6      100.96      4.2067     1.15173E-02
1
 -------------------------------------------------------------------------------------
 
 SOLVING FOR HEAD 

 Outer-Iteration  Inner-Iteration  Backtracking  Number of        Incoming       Outgoing  Maximum HeadChange      Maximum Head Change
     Number           Count           Flag       Backtracks       Residual       Residual           Value              Location
        1                             0             0          0.274203         0.274203    
        1                6                                                                        -1.18522                   990           GWF-node number
        1                6                                                                       -0.858033                     1           CLN-node number
        2                             0             0          0.384745E-14     0.384745E-14
        2                1                                                                        0.838061E-07               190           GWF-node number
        2                1                                                                        0.218569E-06                 3           CLN-node number
     2 CALLS TO SPARSE MATRIX SOLVER PACKAGE  IN FLOW TIME STEP       4 STRESS PERIOD       1

 TOTAL OF       2OUTER ITERATIONS
  MAXIMUM CHANGE FOR EACH ITERATION:
   MAX. CHANGE        NODE  MAX. CHANGE        NODE  MAX. CHANGE        NODE  MAX. CHANGE        NODE  MAX. CHANGE        NODE
 ------------------------------------------------------------------------------------------------------------------------------------
   -1.1852    ,        990  0.83806E-07,        190

  MAXIMUM CHANGE FOR CLN NODE AT EACH ITERATION:
   MAX. CHANGE    CLN-CELL  MAX. CHANGE    CLN-CELL  MAX. CHANGE    CLN-CELL  MAX. CHANGE    CLN-CELL  MAX. CHANGE    CLN-CELL
 ------------------------------------------------------------------------------------------------------------------------------------
  -0.85803    ,          1  0.21857E-06,          3

 HEAD/DRAWDOWN PRINTOUT FLAG = 1     TOTAL BUDGET PRINTOUT FLAG = 1
 CELL-BY-CELL FLOW TERM FLAG = 1
 CONCENTRATION PRINTOUT FLAG = 1

 OUTPUT FLAGS FOR ALL LAYERS ARE THE SAME:
   HEAD    DRAWDOWN  HEAD  DRAWDOWN    CONC    CONC
 PRINTOUT  PRINTOUT  SAVE    SAVE    PRINTOUT  SAVE
 ---------------------------------------------------
     0         0       1       1       0       1
 UBUDSVU SAVING "         STORAGE" ON UNIT  50 AT TIME STEP      4, STRESS PERIOD      1
 UBUDSV SAVING "     CLN STORAGE" ON UNIT 144 AT TIME STEP      4, STRESS PERIOD       1
 UBUDSVU SAVING "   CONSTANT HEAD" ON UNIT  50 AT TIME STEP      4, STRESS PERIOD      1
 UBUDSVU SAVING "   FLOW JA FACE " ON UNIT  50 AT TIME STEP      4, STRESS PERIOD      1
 UBUDSVU SAVING "             CLN" ON UNIT  50 AT TIME STEP      4, STRESS PERIOD      1
 UBUDSVU SAVING "  CLN CONST HEAD" ON UNIT 144 AT TIME STEP      4, STRESS PERIOD      1
 UBUDSVU SAVING "   FLOW CLN FACE" ON UNIT 144 AT TIME STEP      4, STRESS PERIOD      1
 UBUDSVU SAVING "             GWF" ON UNIT 144 AT TIME STEP      4, STRESS PERIOD      1
 UBUDSVU SAVING "           WELLS" ON UNIT  50 AT TIME STEP      4, STRESS PERIOD      1
 UBUDSVU SAVING "           WELLS" ON UNIT 144 AT TIME STEP      4, STRESS PERIOD      1

 HEAD WILL BE SAVED ON UNIT       30 AT END OF TIME STEP        4, STRESS PERIOD        1

 DRAWDOWN WILL BE SAVED ON UNIT   31 AT END OF TIME STEP   4, STRESS PERIOD    1

 CLN HEAD WILL BE SAVED ON UNIT   77 AT END OF TIME STEP   4, STRESS PERIOD    1
1
  VOLUMETRIC BUDGET FOR ENTIRE MODEL AT END OF TIME STEP       4 IN STRESS PERIOD       1
  ---------------------------------------------------------------------------------------

     CUMULATIVE VOLUMES      L**3       RATES FOR THIS TIME STEP      L**3/T
     ------------------                 ------------------------

           IN:                                      IN:
           ---                                      ---
             STORAGE =          31.0185               STORAGE =           5.0000
         CLN STORAGE =           0.0000           CLN STORAGE =           0.0000
       CONSTANT HEAD =           0.0000         CONSTANT HEAD =           0.0000
      CLN CONST HEAD =           0.0000        CLN CONST HEAD =           0.0000
               WELLS =           0.0000                 WELLS =           0.0000

            TOTAL IN =          31.0185              TOTAL IN =           5.0000

          OUT:                                     OUT:
          ----                                     ----
             STORAGE =           0.0000               STORAGE =           0.0000
         CLN STORAGE =           0.0000           CLN STORAGE =           0.0000
       CONSTANT HEAD =           0.0000         CONSTANT HEAD =           0.0000
      CLN CONST HEAD =           0.0000        CLN CONST HEAD =           0.0000
               WELLS =          31.0185                 WELLS =           5.0000

           TOTAL OUT =          31.0185             TOTAL OUT =           5.0000

            IN - OUT =       1.5881E-07              IN - OUT =       6.3813E-08

 PERCENT DISCREPANCY =           0.00     PERCENT DISCREPANCY =           0.00






          TIME SUMMARY AT END OF TIME STEP         4 IN STRESS PERIOD         1
                    SECONDS     MINUTES      HOURS       DAYS        YEARS
                    -----------------------------------------------------------
   TIME STEP LENGTH 1.72542E+05  2875.7      47.928      1.9970     5.46754E-03
 STRESS PERIOD TIME 5.36000E+05  8933.3      148.89      6.2037     1.69848E-02
         TOTAL TIME 5.36000E+05  8933.3      148.89      6.2037     1.69848E-02
1
 ------------------------------------------------------------------------------------------------------------
 
 SOLVING FOR TRANSPORT 

 ------------------------------------------------------------------------------------------------------------------------
     1 CALLS TO SPARSE MATRIX SOLVER PACKAGE IN TRANSPORT TIME STEP       4 STRESS PERIOD       1 SPECIES  1

 TOTAL OF       1OUTER ITERATIONS
  MAXIMUM CHANGE FOR EACH ITERATION:
   MAX. CHANGE        NODE  MAX. CHANGE        NODE  MAX. CHANGE        NODE  MAX. CHANGE        NODE  MAX. CHANGE        NODE
 ------------------------------------------------------------------------------------------------------------------------------------
   0.16695E-10,        191

  MAXIMUM CHANGE FOR CLN NODE AT EACH ITERATION:
   MAX. CHANGE    CLN-CELL  MAX. CHANGE    CLN-CELL  MAX. CHANGE    CLN-CELL  MAX. CHANGE    CLN-CELL  MAX. CHANGE    CLN-CELL
 ------------------------------------------------------------------------------------------------------------------------------------
   0.14758E-02,          3
     TRANSPORT SOLUTION COMPLETE FOR COMPONENT SPECIES NUMBER    1
     ------------------------------------------------------------
 UBUDSVU SAVING "    MASS STORAGE" ON UNIT 145 AT TIME STEP      4, STRESS PERIOD      1
 UBUDSVU SAVING "CLN MASS STORAGE" ON UNIT 145 AT TIME STEP      4, STRESS PERIOD      1
 UBUDSVU SAVING "CNST H MASS FLUX" ON UNIT 145 AT TIME STEP      4, STRESS PERIOD      1
 UBUDSVU SAVING "  WELL MASS FLUX" ON UNIT 145 AT TIME STEP      4, STRESS PERIOD      1

 TRANSPORT SOLUTION COMPLETE FOR ALL SPECIES, SORTING OUTPUT FOR CONCENTRATIONS AND MASS BALANCE
 ----------------------------------------------------------------------------------------------------
     TRANSPORT OUTPUT FOR COMPONENT SPECIES NUMBER    1
     ------------------------------------------------------------

 CONC WILL BE SAVED ON UNIT  132 AT END OF TIME STEP        4, STRESS PERIOD        1

 CLN CONC WILL BE SAVED ON UNIT  188 AT END OF TIME STEP   4, STRESS PERIOD    1
1
  VOLUMETRIC BUDGET FOR ENTIRE MODEL AT END OF TIME STEP       4 IN STRESS PERIOD       1
  ---------------------------------------------------------------------------------------

     CUMULATIVE VOLUMES      L**3       RATES FOR THIS TIME STEP      L**3/T
     ------------------                 ------------------------

           IN:                                      IN:
           ---                                      ---
        MASS STORAGE =           3.1019          MASS STORAGE =           0.5000
    CNST H MASS FLUX =           0.0000      CNST H MASS FLUX =           0.0000
      WELL MASS FLUX =           0.0000        WELL MASS FLUX =           0.0000

            TOTAL IN =           3.1019              TOTAL IN =           0.5000

          OUT:                                     OUT:
          ----                                     ----
        MASS STORAGE =           0.2822          MASS STORAGE =       1.4127E-03
    CNST H MASS FLUX =           0.0000      CNST H MASS FLUX =           0.0000
      WELL MASS FLUX =           2.8196        WELL MASS FLUX =           0.4986

           TOTAL OUT =           3.1019             TOTAL OUT =           0.5000

            IN - OUT =      -6.6169E-14              IN - OUT =      -1.1758E-08

 PERCENT DISCREPANCY =          -0.00     PERCENT DISCREPANCY =          -0.00






          TIME SUMMARY AT END OF TIME STEP         4 IN STRESS PERIOD         1
                    SECONDS     MINUTES      HOURS       DAYS        YEARS
                    -----------------------------------------------------------
   TIME STEP LENGTH 1.72542E+05  2875.7      47.928      1.9970     5.46754E-03
 STRESS PERIOD TIME 5.36000E+05  8933.3      148.89      6.2037     1.69848E-02
         TOTAL TIME 5.36000E+05  8933.3      148.89      6.2037     1.69848E-02
1
 -------------------------------------------------------------------------------------
 
 SOLVING FOR HEAD 

 Outer-Iteration  Inner-Iteration  Backtracking  Number of        Incoming       Outgoing  Maximum HeadChange      Maximum Head Change
     Number           Count           Flag       Backtracks       Residual       Residual           Value              Location
        1                             0             0          0.173121         0.173121    
        1                6                                                                       -0.910670                   990           GWF-node number
        1                6                                                                       -0.683508                     3           CLN-node number
        2                             0             0          0.241152E-14     0.241152E-14
        2                1                                                                       -0.768701E-08               519           GWF-node number
        2                1                                                                        0.187132E-07                 3           CLN-node number
     2 CALLS TO SPARSE MATRIX SOLVER PACKAGE  IN FLOW TIME STEP       5 STRESS PERIOD       1

 TOTAL OF       2OUTER ITERATIONS
  MAXIMUM CHANGE FOR EACH ITERATION:
   MAX. CHANGE        NODE  MAX. CHANGE        NODE  MAX. CHANGE        NODE  MAX. CHANGE        NODE  MAX. CHANGE        NODE
 ------------------------------------------------------------------------------------------------------------------------------------
  -0.91067    ,        990 -0.76870E-08,        519

  MAXIMUM CHANGE FOR CLN NODE AT EACH ITERATION:
   MAX. CHANGE    CLN-CELL  MAX. CHANGE    CLN-CELL  MAX. CHANGE    CLN-CELL  MAX. CHANGE    CLN-CELL  MAX. CHANGE    CLN-CELL
 ------------------------------------------------------------------------------------------------------------------------------------
  -0.68351    ,          3  0.18713E-07,          3

 HEAD/DRAWDOWN PRINTOUT FLAG = 1     TOTAL BUDGET PRINTOUT FLAG = 1
 CELL-BY-CELL FLOW TERM FLAG = 1
 CONCENTRATION PRINTOUT FLAG = 1

 OUTPUT FLAGS FOR ALL LAYERS ARE THE SAME:
   HEAD    DRAWDOWN  HEAD  DRAWDOWN    CONC    CONC
 PRINTOUT  PRINTOUT  SAVE    SAVE    PRINTOUT  SAVE
 ---------------------------------------------------
     0         0       1       1       0       1
 UBUDSVU SAVING "         STORAGE" ON UNIT  50 AT TIME STEP      5, STRESS PERIOD      1
 UBUDSV SAVING "     CLN STORAGE" ON UNIT 144 AT TIME STEP      5, STRESS PERIOD       1
 UBUDSVU SAVING "   CONSTANT HEAD" ON UNIT  50 AT TIME STEP      5, STRESS PERIOD      1
 UBUDSVU SAVING "   FLOW JA FACE " ON UNIT  50 AT TIME STEP      5, STRESS PERIOD      1
 UBUDSVU SAVING "             CLN" ON UNIT  50 AT TIME STEP      5, STRESS PERIOD      1
 UBUDSVU SAVING "  CLN CONST HEAD" ON UNIT 144 AT TIME STEP      5, STRESS PERIOD      1
 UBUDSVU SAVING "   FLOW CLN FACE" ON UNIT 144 AT TIME STEP      5, STRESS PERIOD      1
 UBUDSVU SAVING "             GWF" ON UNIT 144 AT TIME STEP      5, STRESS PERIOD      1
 UBUDSVU SAVING "           WELLS" ON UNIT  50 AT TIME STEP      5, STRESS PERIOD      1
 UBUDSVU SAVING "           WELLS" ON UNIT 144 AT TIME STEP      5, STRESS PERIOD      1

 HEAD WILL BE SAVED ON UNIT       30 AT END OF TIME STEP        5, STRESS PERIOD        1

 DRAWDOWN WILL BE SAVED ON UNIT   31 AT END OF TIME STEP   5, STRESS PERIOD    1

 CLN HEAD WILL BE SAVED ON UNIT   77 AT END OF TIME STEP   5, STRESS PERIOD    1
1
  VOLUMETRIC BUDGET FOR ENTIRE MODEL AT END OF TIME STEP       5 IN STRESS PERIOD       1
  ---------------------------------------------------------------------------------------

     CUMULATIVE VOLUMES      L**3       RATES FOR THIS TIME STEP      L**3/T
     ------------------                 ------------------------

           IN:                                      IN:
           ---                                      ---
             STORAGE =          43.0006               STORAGE =           5.0000
         CLN STORAGE =           0.0000           CLN STORAGE =           0.0000
       CONSTANT HEAD =           0.0000         CONSTANT HEAD =           0.0000
      CLN CONST HEAD =           0.0000        CLN CONST HEAD =           0.0000
               WELLS =           0.0000                 WELLS =           0.0000

            TOTAL IN =          43.0006              TOTAL IN =           5.0000

          OUT:                                     OUT:
          ----                                     ----
             STORAGE =           0.0000               STORAGE =           0.0000
         CLN STORAGE =           0.0000           CLN STORAGE =           0.0000
       CONSTANT HEAD =           0.0000         CONSTANT HEAD =           0.0000
      CLN CONST HEAD =           0.0000        CLN CONST HEAD =           0.0000
               WELLS =          43.0006                 WELLS =           5.0000

           TOTAL OUT =          43.0006             TOTAL OUT =           5.0000

            IN - OUT =       4.4302E-07              IN - OUT =       1.1860E-07

 PERCENT DISCREPANCY =           0.00     PERCENT DISCREPANCY =           0.00






          TIME SUMMARY AT END OF TIME STEP         5 IN STRESS PERIOD         1
                    SECONDS     MINUTES      HOURS       DAYS        YEARS
                    -----------------------------------------------------------
   TIME STEP LENGTH 2.07051E+05  3450.8      57.514      2.3964     6.56105E-03
 STRESS PERIOD TIME 7.43051E+05  12384.      206.40      8.6001     2.35459E-02
         TOTAL TIME 7.43051E+05  12384.      206.40      8.6001     2.35459E-02
1
 ------------------------------------------------------------------------------------------------------------
 
 SOLVING FOR TRANSPORT 

 ------------------------------------------------------------------------------------------------------------------------
     1 CALLS TO SPARSE MATRIX SOLVER PACKAGE IN TRANSPORT TIME STEP       5 STRESS PERIOD       1 SPECIES  1

 TOTAL OF       1OUTER ITERATIONS
  MAXIMUM CHANGE FOR EACH ITERATION:
   MAX. CHANGE        NODE  MAX. CHANGE        NODE  MAX. CHANGE        NODE  MAX. CHANGE        NODE  MAX. CHANGE        NODE
 ------------------------------------------------------------------------------------------------------------------------------------
   0.16145E-11,        191

  MAXIMUM CHANGE FOR CLN NODE AT EACH ITERATION:
   MAX. CHANGE    CLN-CELL  MAX. CHANGE    CLN-CELL  MAX. CHANGE    CLN-CELL  MAX. CHANGE    CLN-CELL  MAX. CHANGE    CLN-CELL
 ------------------------------------------------------------------------------------------------------------------------------------
   0.24521E-03,          3
     TRANSPORT SOLUTION COMPLETE FOR COMPONENT SPECIES NUMBER    1
     ------------------------------------------------------------
 UBUDSVU SAVING "    MASS STORAGE" ON UNIT 145 AT TIME STEP      5, STRESS PERIOD      1
 UBUDSVU SAVING "CLN MASS STORAGE" ON UNIT 145 AT TIME STEP      5, STRESS PERIOD      1
 UBUDSVU SAVING "CNST H MASS FLUX" ON UNIT 145 AT TIME STEP      5, STRESS PERIOD      1
 UBUDSVU SAVING "  WELL MASS FLUX" ON UNIT 145 AT TIME STEP      5, STRESS PERIOD      1

 TRANSPORT SOLUTION COMPLETE FOR ALL SPECIES, SORTING OUTPUT FOR CONCENTRATIONS AND MASS BALANCE
 ----------------------------------------------------------------------------------------------------
     TRANSPORT OUTPUT FOR COMPONENT SPECIES NUMBER    1
     ------------------------------------------------------------

 CONC WILL BE SAVED ON UNIT  132 AT END OF TIME STEP        5, STRESS PERIOD        1

 CLN CONC WILL BE SAVED ON UNIT  188 AT END OF TIME STEP   5, STRESS PERIOD    1
1
  VOLUMETRIC BUDGET FOR ENTIRE MODEL AT END OF TIME STEP       5 IN STRESS PERIOD       1
  ---------------------------------------------------------------------------------------

     CUMULATIVE VOLUMES      L**3       RATES FOR THIS TIME STEP      L**3/T
     ------------------                 ------------------------

           IN:                                      IN:
           ---                                      ---
        MASS STORAGE =           4.3001          MASS STORAGE =           0.5000
    CNST H MASS FLUX =           0.0000      CNST H MASS FLUX =           0.0000
      WELL MASS FLUX =           0.0000        WELL MASS FLUX =           0.0000

            TOTAL IN =           4.3001              TOTAL IN =           0.5000

          OUT:                                     OUT:
          ----                                     ----
        MASS STORAGE =           0.2827          MASS STORAGE =       1.8665E-04
    CNST H MASS FLUX =           0.0000      CNST H MASS FLUX =           0.0000
      WELL MASS FLUX =           4.0174        WELL MASS FLUX =           0.4998

           TOTAL OUT =           4.3001             TOTAL OUT =           0.5000

            IN - OUT =       4.4409E-14              IN - OUT =      -2.3909E-08

 PERCENT DISCREPANCY =           0.00     PERCENT DISCREPANCY =          -0.00






          TIME SUMMARY AT END OF TIME STEP         5 IN STRESS PERIOD         1
                    SECONDS     MINUTES      HOURS       DAYS        YEARS
                    -----------------------------------------------------------
   TIME STEP LENGTH 2.07051E+05  3450.8      57.514      2.3964     6.56105E-03
 STRESS PERIOD TIME 7.43051E+05  12384.      206.40      8.6001     2.35459E-02
         TOTAL TIME 7.43051E+05  12384.      206.40      8.6001     2.35459E-02
1
 -------------------------------------------------------------------------------------
 
 SOLVING FOR HEAD 

 Outer-Iteration  Inner-Iteration  Backtracking  Number of        Incoming       Outgoing  Maximum HeadChange      Maximum Head Change
     Number           Count           Flag       Backtracks       Residual       Residual           Value              Location
        1                             0             0          0.120905         0.120905    
        1                6                                                                       -0.832123                   590           GWF-node number
        1                6                                                                       -0.581210                     3           CLN-node number
        2                             0             0          0.258287E-13     0.258287E-13
        2                1                                                                       -0.195033E-06               190           GWF-node number
        2                1                                                                       -0.488667E-06                 3           CLN-node number
     2 CALLS TO SPARSE MATRIX SOLVER PACKAGE  IN FLOW TIME STEP       6 STRESS PERIOD       1

 TOTAL OF       2OUTER ITERATIONS
  MAXIMUM CHANGE FOR EACH ITERATION:
   MAX. CHANGE        NODE  MAX. CHANGE        NODE  MAX. CHANGE        NODE  MAX. CHANGE        NODE  MAX. CHANGE        NODE
 ------------------------------------------------------------------------------------------------------------------------------------
  -0.83212    ,        590 -0.19503E-06,        190

  MAXIMUM CHANGE FOR CLN NODE AT EACH ITERATION:
   MAX. CHANGE    CLN-CELL  MAX. CHANGE    CLN-CELL  MAX. CHANGE    CLN-CELL  MAX. CHANGE    CLN-CELL  MAX. CHANGE    CLN-CELL
 ------------------------------------------------------------------------------------------------------------------------------------
  -0.58121    ,          3 -0.48867E-06,          3

 HEAD/DRAWDOWN PRINTOUT FLAG = 1     TOTAL BUDGET PRINTOUT FLAG = 1
 CELL-BY-CELL FLOW TERM FLAG = 1
 CONCENTRATION PRINTOUT FLAG = 1

 OUTPUT FLAGS FOR ALL LAYERS ARE THE SAME:
   HEAD    DRAWDOWN  HEAD  DRAWDOWN    CONC    CONC
 PRINTOUT  PRINTOUT  SAVE    SAVE    PRINTOUT  SAVE
 ---------------------------------------------------
     0         0       1       1       0       1
 UBUDSVU SAVING "         STORAGE" ON UNIT  50 AT TIME STEP      6, STRESS PERIOD      1
 UBUDSV SAVING "     CLN STORAGE" ON UNIT 144 AT TIME STEP      6, STRESS PERIOD       1
 UBUDSVU SAVING "   CONSTANT HEAD" ON UNIT  50 AT TIME STEP      6, STRESS PERIOD      1
 UBUDSVU SAVING "   FLOW JA FACE " ON UNIT  50 AT TIME STEP      6, STRESS PERIOD      1
 UBUDSVU SAVING "             CLN" ON UNIT  50 AT TIME STEP      6, STRESS PERIOD      1
 UBUDSVU SAVING "  CLN CONST HEAD" ON UNIT 144 AT TIME STEP      6, STRESS PERIOD      1
 UBUDSVU SAVING "   FLOW CLN FACE" ON UNIT 144 AT TIME STEP      6, STRESS PERIOD      1
 UBUDSVU SAVING "             GWF" ON UNIT 144 AT TIME STEP      6, STRESS PERIOD      1
 UBUDSVU SAVING "           WELLS" ON UNIT  50 AT TIME STEP      6, STRESS PERIOD      1
 UBUDSVU SAVING "           WELLS" ON UNIT 144 AT TIME STEP      6, STRESS PERIOD      1

 HEAD WILL BE SAVED ON UNIT       30 AT END OF TIME STEP        6, STRESS PERIOD        1

 DRAWDOWN WILL BE SAVED ON UNIT   31 AT END OF TIME STEP   6, STRESS PERIOD    1

 CLN HEAD WILL BE SAVED ON UNIT   77 AT END OF TIME STEP   6, STRESS PERIOD    1
1
  VOLUMETRIC BUDGET FOR ENTIRE MODEL AT END OF TIME STEP       6 IN STRESS PERIOD       1
  ---------------------------------------------------------------------------------------

     CUMULATIVE VOLUMES      L**3       RATES FOR THIS TIME STEP      L**3/T
     ------------------                 ------------------------

           IN:                                      IN:
           ---                                      ---
             STORAGE =          57.3792               STORAGE =           5.0000
         CLN STORAGE =           0.0000           CLN STORAGE =           0.0000
       CONSTANT HEAD =           0.0000         CONSTANT HEAD =           0.0000
      CLN CONST HEAD =           0.0000        CLN CONST HEAD =           0.0000
               WELLS =           0.0000                 WELLS =           0.0000

            TOTAL IN =          57.3792              TOTAL IN =           5.0000

          OUT:                                     OUT:
          ----                                     ----
             STORAGE =           0.0000               STORAGE =           0.0000
         CLN STORAGE =           0.0000           CLN STORAGE =           0.0000
       CONSTANT HEAD =           0.0000         CONSTANT HEAD =           0.0000
      CLN CONST HEAD =           0.0000        CLN CONST HEAD =           0.0000
               WELLS =          57.3792                 WELLS =           5.0000

           TOTAL OUT =          57.3792             TOTAL OUT =           5.0000

            IN - OUT =       4.0228E-07              IN - OUT =      -1.4167E-08

 PERCENT DISCREPANCY =           0.00     PERCENT DISCREPANCY =          -0.00






          TIME SUMMARY AT END OF TIME STEP         6 IN STRESS PERIOD         1
                    SECONDS     MINUTES      HOURS       DAYS        YEARS
                    -----------------------------------------------------------
   TIME STEP LENGTH 2.48461E+05  4141.0      69.017      2.8757     7.87326E-03
 STRESS PERIOD TIME 9.91512E+05  16525.      275.42      11.476     3.14191E-02
         TOTAL TIME 9.91512E+05  16525.      275.42      11.476     3.14191E-02
1
 ------------------------------------------------------------------------------------------------------------
 
 SOLVING FOR TRANSPORT 

 ------------------------------------------------------------------------------------------------------------------------
     1 CALLS TO SPARSE MATRIX SOLVER PACKAGE IN TRANSPORT TIME STEP       6 STRESS PERIOD       1 SPECIES  1

 TOTAL OF       1OUTER ITERATIONS
  MAXIMUM CHANGE FOR EACH ITERATION:
   MAX. CHANGE        NODE  MAX. CHANGE        NODE  MAX. CHANGE        NODE  MAX. CHANGE        NODE  MAX. CHANGE        NODE
 ------------------------------------------------------------------------------------------------------------------------------------
  -0.55924E-10,        191

  MAXIMUM CHANGE FOR CLN NODE AT EACH ITERATION:
   MAX. CHANGE    CLN-CELL  MAX. CHANGE    CLN-CELL  MAX. CHANGE    CLN-CELL  MAX. CHANGE    CLN-CELL  MAX. CHANGE    CLN-CELL
 ------------------------------------------------------------------------------------------------------------------------------------
   0.33246E-04,          3
     TRANSPORT SOLUTION COMPLETE FOR COMPONENT SPECIES NUMBER    1
     ------------------------------------------------------------
 UBUDSVU SAVING "    MASS STORAGE" ON UNIT 145 AT TIME STEP      6, STRESS PERIOD      1
 UBUDSVU SAVING "CLN MASS STORAGE" ON UNIT 145 AT TIME STEP      6, STRESS PERIOD      1
 UBUDSVU SAVING "CNST H MASS FLUX" ON UNIT 145 AT TIME STEP      6, STRESS PERIOD      1
 UBUDSVU SAVING "  WELL MASS FLUX" ON UNIT 145 AT TIME STEP      6, STRESS PERIOD      1

 TRANSPORT SOLUTION COMPLETE FOR ALL SPECIES, SORTING OUTPUT FOR CONCENTRATIONS AND MASS BALANCE
 ----------------------------------------------------------------------------------------------------
     TRANSPORT OUTPUT FOR COMPONENT SPECIES NUMBER    1
     ------------------------------------------------------------

 CONC WILL BE SAVED ON UNIT  132 AT END OF TIME STEP        6, STRESS PERIOD        1

 CLN CONC WILL BE SAVED ON UNIT  188 AT END OF TIME STEP   6, STRESS PERIOD    1
1
  VOLUMETRIC BUDGET FOR ENTIRE MODEL AT END OF TIME STEP       6 IN STRESS PERIOD       1
  ---------------------------------------------------------------------------------------

     CUMULATIVE VOLUMES      L**3       RATES FOR THIS TIME STEP      L**3/T
     ------------------                 ------------------------

           IN:                                      IN:
           ---                                      ---
        MASS STORAGE =           5.7379          MASS STORAGE =           0.5000
    CNST H MASS FLUX =           0.0000      CNST H MASS FLUX =           0.0000
      WELL MASS FLUX =           0.0000        WELL MASS FLUX =           0.0000

            TOTAL IN =           5.7379              TOTAL IN =           0.5000

          OUT:                                     OUT:
          ----                                     ----
        MASS STORAGE =           0.2827          MASS STORAGE =       2.0415E-05
    CNST H MASS FLUX =           0.0000      CNST H MASS FLUX =           0.0000
      WELL MASS FLUX =           5.4552        WELL MASS FLUX =           0.5000

           TOTAL OUT =           5.7379             TOTAL OUT =           0.5000

            IN - OUT =       2.0428E-14              IN - OUT =      -3.0428E-08

 PERCENT DISCREPANCY =           0.00     PERCENT DISCREPANCY =          -0.00






          TIME SUMMARY AT END OF TIME STEP         6 IN STRESS PERIOD         1
                    SECONDS     MINUTES      HOURS       DAYS        YEARS
                    -----------------------------------------------------------
   TIME STEP LENGTH 2.48461E+05  4141.0      69.017      2.8757     7.87326E-03
 STRESS PERIOD TIME 9.91512E+05  16525.      275.42      11.476     3.14191E-02
         TOTAL TIME 9.91512E+05  16525.      275.42      11.476     3.14191E-02
1
 -------------------------------------------------------------------------------------
 
 SOLVING FOR HEAD 

 Outer-Iteration  Inner-Iteration  Backtracking  Number of        Incoming       Outgoing  Maximum HeadChange      Maximum Head Change
     Number           Count           Flag       Backtracks       Residual       Residual           Value              Location
        1                             0             0          0.910244E-01     0.910244E-01
        1                6                                                                       -0.939859                   590           GWF-node number
        1                6                                                                       -0.517628                     1           CLN-node number
        2                             0             0          0.775250E-14     0.775250E-14
        2                1                                                                        0.846001E-07               190           GWF-node number
        2                1                                                                        0.226773E-06                 3           CLN-node number
     2 CALLS TO SPARSE MATRIX SOLVER PACKAGE  IN FLOW TIME STEP       7 STRESS PERIOD       1

 TOTAL OF       2OUTER ITERATIONS
  MAXIMUM CHANGE FOR EACH ITERATION:
   MAX. CHANGE        NODE  MAX. CHANGE        NODE  MAX. CHANGE        NODE  MAX. CHANGE        NODE  MAX. CHANGE        NODE
 ------------------------------------------------------------------------------------------------------------------------------------
  -0.93986    ,        590  0.84600E-07,        190

  MAXIMUM CHANGE FOR CLN NODE AT EACH ITERATION:
   MAX. CHANGE    CLN-CELL  MAX. CHANGE    CLN-CELL  MAX. CHANGE    CLN-CELL  MAX. CHANGE    CLN-CELL  MAX. CHANGE    CLN-CELL
 ------------------------------------------------------------------------------------------------------------------------------------
  -0.51763    ,          1  0.22677E-06,          3

 HEAD/DRAWDOWN PRINTOUT FLAG = 1     TOTAL BUDGET PRINTOUT FLAG = 1
 CELL-BY-CELL FLOW TERM FLAG = 1
 CONCENTRATION PRINTOUT FLAG = 1

 OUTPUT FLAGS FOR ALL LAYERS ARE THE SAME:
   HEAD    DRAWDOWN  HEAD  DRAWDOWN    CONC    CONC
 PRINTOUT  PRINTOUT  SAVE    SAVE    PRINTOUT  SAVE
 ---------------------------------------------------
     0         0       1       1       0       1
 UBUDSVU SAVING "         STORAGE" ON UNIT  50 AT TIME STEP      7, STRESS PERIOD      1
 UBUDSV SAVING "     CLN STORAGE" ON UNIT 144 AT TIME STEP      7, STRESS PERIOD       1
 UBUDSVU SAVING "   CONSTANT HEAD" ON UNIT  50 AT TIME STEP      7, STRESS PERIOD      1
 UBUDSVU SAVING "   FLOW JA FACE " ON UNIT  50 AT TIME STEP      7, STRESS PERIOD      1
 UBUDSVU SAVING "             CLN" ON UNIT  50 AT TIME STEP      7, STRESS PERIOD      1
 UBUDSVU SAVING "  CLN CONST HEAD" ON UNIT 144 AT TIME STEP      7, STRESS PERIOD      1
 UBUDSVU SAVING "   FLOW CLN FACE" ON UNIT 144 AT TIME STEP      7, STRESS PERIOD      1
 UBUDSVU SAVING "             GWF" ON UNIT 144 AT TIME STEP      7, STRESS PERIOD      1
[...]

            IN - OUT =       4.8760E-10              IN - OUT =      -1.3395E-10

 PERCENT DISCREPANCY =           0.00     PERCENT DISCREPANCY =          -0.00






          TIME SUMMARY AT END OF TIME STEP         8 IN STRESS PERIOD        20
                    SECONDS     MINUTES      HOURS       DAYS        YEARS
                    -----------------------------------------------------------
   TIME STEP LENGTH 3.57784E+05  5963.1      99.384      4.1410     1.13375E-02
 STRESS PERIOD TIME 1.64745E+06  27457.      457.62      19.068     5.22045E-02
         TOTAL TIME 5.08954E+07 8.48257E+05  14138.      589.07      1.6128    
1
 -------------------------------------------------------------------------------------
 
 SOLVING FOR HEAD 

 Outer-Iteration  Inner-Iteration  Backtracking  Number of        Incoming       Outgoing  Maximum HeadChange      Maximum Head Change
     Number           Count           Flag       Backtracks       Residual       Residual           Value              Location
        1                             0             0          0.341238E-01     0.341238E-01
        1                6                                                                       -0.209747                   400           GWF-node number
        1                6                                                                       -0.199750                     2           CLN-node number
        2                             0             0          0.245068E-05     0.245068E-05
        2                1                                                                       -0.322422E-06               650           GWF-node number
        2                1                                                                        0.485407E-06                 1           CLN-node number
     2 CALLS TO SPARSE MATRIX SOLVER PACKAGE  IN FLOW TIME STEP       9 STRESS PERIOD      20

 TOTAL OF       2OUTER ITERATIONS
  MAXIMUM CHANGE FOR EACH ITERATION:
   MAX. CHANGE        NODE  MAX. CHANGE        NODE  MAX. CHANGE        NODE  MAX. CHANGE        NODE  MAX. CHANGE        NODE
 ------------------------------------------------------------------------------------------------------------------------------------
  -0.20975    ,        400 -0.32242E-06,        650

  MAXIMUM CHANGE FOR CLN NODE AT EACH ITERATION:
   MAX. CHANGE    CLN-CELL  MAX. CHANGE    CLN-CELL  MAX. CHANGE    CLN-CELL  MAX. CHANGE    CLN-CELL  MAX. CHANGE    CLN-CELL
 ------------------------------------------------------------------------------------------------------------------------------------
  -0.19975    ,          2  0.48541E-06,          1

 HEAD/DRAWDOWN PRINTOUT FLAG = 1     TOTAL BUDGET PRINTOUT FLAG = 1
 CELL-BY-CELL FLOW TERM FLAG = 1
 CONCENTRATION PRINTOUT FLAG = 1

 OUTPUT FLAGS FOR ALL LAYERS ARE THE SAME:
   HEAD    DRAWDOWN  HEAD  DRAWDOWN    CONC    CONC
 PRINTOUT  PRINTOUT  SAVE    SAVE    PRINTOUT  SAVE
 ---------------------------------------------------
     0         0       1       1       0       1
 UBUDSVU SAVING "         STORAGE" ON UNIT  50 AT TIME STEP      9, STRESS PERIOD     20
 UBUDSV SAVING "     CLN STORAGE" ON UNIT 144 AT TIME STEP      9, STRESS PERIOD      20
 UBUDSVU SAVING "   CONSTANT HEAD" ON UNIT  50 AT TIME STEP      9, STRESS PERIOD     20
 UBUDSVU SAVING "   FLOW JA FACE " ON UNIT  50 AT TIME STEP      9, STRESS PERIOD     20
 UBUDSVU SAVING "             CLN" ON UNIT  50 AT TIME STEP      9, STRESS PERIOD     20
 UBUDSVU SAVING "  CLN CONST HEAD" ON UNIT 144 AT TIME STEP      9, STRESS PERIOD     20
 UBUDSVU SAVING "   FLOW CLN FACE" ON UNIT 144 AT TIME STEP      9, STRESS PERIOD     20
 UBUDSVU SAVING "             GWF" ON UNIT 144 AT TIME STEP      9, STRESS PERIOD     20
 UBUDSVU SAVING "           WELLS" ON UNIT  50 AT TIME STEP      9, STRESS PERIOD     20
 UBUDSVU SAVING "           WELLS" ON UNIT 144 AT TIME STEP      9, STRESS PERIOD     20

 HEAD WILL BE SAVED ON UNIT       30 AT END OF TIME STEP        9, STRESS PERIOD       20

 DRAWDOWN WILL BE SAVED ON UNIT   31 AT END OF TIME STEP   9, STRESS PERIOD   20

 CLN HEAD WILL BE SAVED ON UNIT   77 AT END OF TIME STEP   9, STRESS PERIOD   20
1
  VOLUMETRIC BUDGET FOR ENTIRE MODEL AT END OF TIME STEP       9 IN STRESS PERIOD      20
  ---------------------------------------------------------------------------------------

     CUMULATIVE VOLUMES      L**3       RATES FOR THIS TIME STEP      L**3/T
     ------------------                 ------------------------

           IN:                                      IN:
           ---                                      ---
             STORAGE =        2969.6116               STORAGE =           4.9972
         CLN STORAGE =           0.5730           CLN STORAGE =       2.8414E-03
       CONSTANT HEAD =           0.0000         CONSTANT HEAD =           0.0000
      CLN CONST HEAD =           0.0000        CLN CONST HEAD =           0.0000
               WELLS =           0.0000                 WELLS =           0.0000

            TOTAL IN =        2970.1846              TOTAL IN =           5.0000

          OUT:                                     OUT:
          ----                                     ----
             STORAGE =           0.0000               STORAGE =           0.0000
         CLN STORAGE =           0.0000           CLN STORAGE =           0.0000
       CONSTANT HEAD =           0.0000         CONSTANT HEAD =           0.0000
      CLN CONST HEAD =           0.0000        CLN CONST HEAD =           0.0000
               WELLS =        2970.1845                 WELLS =           5.0000

           TOTAL OUT =        2970.1845             TOTAL OUT =           5.0000

            IN - OUT =       2.2903E-05              IN - OUT =       1.9148E-09

 PERCENT DISCREPANCY =           0.00     PERCENT DISCREPANCY =           0.00






          TIME SUMMARY AT END OF TIME STEP         9 IN STRESS PERIOD        20
                    SECONDS     MINUTES      HOURS       DAYS        YEARS
                    -----------------------------------------------------------
   TIME STEP LENGTH 4.29341E+05  7155.7      119.26      4.9692     1.36050E-02
 STRESS PERIOD TIME 2.07679E+06  34613.      576.89      24.037     6.58095E-02
         TOTAL TIME 5.13248E+07 8.55413E+05  14257.      594.04      1.6264    
1
 ------------------------------------------------------------------------------------------------------------
 
 SOLVING FOR TRANSPORT 

 ------------------------------------------------------------------------------------------------------------------------
     1 CALLS TO SPARSE MATRIX SOLVER PACKAGE IN TRANSPORT TIME STEP       9 STRESS PERIOD      20 SPECIES  1

 TOTAL OF       1OUTER ITERATIONS
  MAXIMUM CHANGE FOR EACH ITERATION:
   MAX. CHANGE        NODE  MAX. CHANGE        NODE  MAX. CHANGE        NODE  MAX. CHANGE        NODE  MAX. CHANGE        NODE
 ------------------------------------------------------------------------------------------------------------------------------------
   0.84470E-10,        191

  MAXIMUM CHANGE FOR CLN NODE AT EACH ITERATION:
   MAX. CHANGE    CLN-CELL  MAX. CHANGE    CLN-CELL  MAX. CHANGE    CLN-CELL  MAX. CHANGE    CLN-CELL  MAX. CHANGE    CLN-CELL
 ------------------------------------------------------------------------------------------------------------------------------------
   0.26461E-08,          1
     TRANSPORT SOLUTION COMPLETE FOR COMPONENT SPECIES NUMBER    1
     ------------------------------------------------------------
 UBUDSVU SAVING "    MASS STORAGE" ON UNIT 145 AT TIME STEP      9, STRESS PERIOD     20
 UBUDSVU SAVING "CLN MASS STORAGE" ON UNIT 145 AT TIME STEP      9, STRESS PERIOD     20
 UBUDSVU SAVING "CNST H MASS FLUX" ON UNIT 145 AT TIME STEP      9, STRESS PERIOD     20
 UBUDSVU SAVING "  WELL MASS FLUX" ON UNIT 145 AT TIME STEP      9, STRESS PERIOD     20

 TRANSPORT SOLUTION COMPLETE FOR ALL SPECIES, SORTING OUTPUT FOR CONCENTRATIONS AND MASS BALANCE
 ----------------------------------------------------------------------------------------------------
     TRANSPORT OUTPUT FOR COMPONENT SPECIES NUMBER    1
     ------------------------------------------------------------

 CONC WILL BE SAVED ON UNIT  132 AT END OF TIME STEP        9, STRESS PERIOD       20

 CLN CONC WILL BE SAVED ON UNIT  188 AT END OF TIME STEP   9, STRESS PERIOD   20
1
  VOLUMETRIC BUDGET FOR ENTIRE MODEL AT END OF TIME STEP       9 IN STRESS PERIOD      20
  ---------------------------------------------------------------------------------------

     CUMULATIVE VOLUMES      L**3       RATES FOR THIS TIME STEP      L**3/T
     ------------------                 ------------------------

           IN:                                      IN:
           ---                                      ---
        MASS STORAGE =         297.0185          MASS STORAGE =           0.5000
    CNST H MASS FLUX =           0.0000      CNST H MASS FLUX =           0.0000
      WELL MASS FLUX =           0.0000        WELL MASS FLUX =           0.0000

            TOTAL IN =         297.0185              TOTAL IN =           0.5000

          OUT:                                     OUT:
          ----                                     ----
        MASS STORAGE =           0.2827          MASS STORAGE =           0.0000
    CNST H MASS FLUX =           0.0000      CNST H MASS FLUX =           0.0000
      WELL MASS FLUX =         296.7357        WELL MASS FLUX =           0.5000

           TOTAL OUT =         297.0185             TOTAL OUT =           0.5000

            IN - OUT =       5.6684E-10              IN - OUT =           0.0000

 PERCENT DISCREPANCY =           0.00     PERCENT DISCREPANCY =           0.00






          TIME SUMMARY AT END OF TIME STEP         9 IN STRESS PERIOD        20
                    SECONDS     MINUTES      HOURS       DAYS        YEARS
                    -----------------------------------------------------------
   TIME STEP LENGTH 4.29341E+05  7155.7      119.26      4.9692     1.36050E-02
 STRESS PERIOD TIME 2.07679E+06  34613.      576.89      24.037     6.58095E-02
         TOTAL TIME 5.13248E+07 8.55413E+05  14257.      594.04      1.6264    
1
 -------------------------------------------------------------------------------------
 
 SOLVING FOR HEAD 

 Outer-Iteration  Inner-Iteration  Backtracking  Number of        Incoming       Outgoing  Maximum HeadChange      Maximum Head Change
     Number           Count           Flag       Backtracks       Residual       Residual           Value              Location
        1                             0             0          0.340672E-01     0.340672E-01
        1                7                                                                       -0.251157                   400           GWF-node number
        1                7                                                                       -0.239258                     3           CLN-node number
        2                             0             0          0.539372E-05     0.539372E-05
        2                1                                                                       -0.519299E-07               417           GWF-node number
        2                1                                                                       -0.934758E-07                 3           CLN-node number
     2 CALLS TO SPARSE MATRIX SOLVER PACKAGE  IN FLOW TIME STEP      10 STRESS PERIOD      20

 TOTAL OF       2OUTER ITERATIONS
  MAXIMUM CHANGE FOR EACH ITERATION:
   MAX. CHANGE        NODE  MAX. CHANGE        NODE  MAX. CHANGE        NODE  MAX. CHANGE        NODE  MAX. CHANGE        NODE
 ------------------------------------------------------------------------------------------------------------------------------------
  -0.25116    ,        400 -0.51930E-07,        417

  MAXIMUM CHANGE FOR CLN NODE AT EACH ITERATION:
   MAX. CHANGE    CLN-CELL  MAX. CHANGE    CLN-CELL  MAX. CHANGE    CLN-CELL  MAX. CHANGE    CLN-CELL  MAX. CHANGE    CLN-CELL
 ------------------------------------------------------------------------------------------------------------------------------------
  -0.23926    ,          3 -0.93476E-07,          3

 HEAD/DRAWDOWN PRINTOUT FLAG = 1     TOTAL BUDGET PRINTOUT FLAG = 1
 CELL-BY-CELL FLOW TERM FLAG = 1
 CONCENTRATION PRINTOUT FLAG = 1

 OUTPUT FLAGS FOR ALL LAYERS ARE THE SAME:
   HEAD    DRAWDOWN  HEAD  DRAWDOWN    CONC    CONC
 PRINTOUT  PRINTOUT  SAVE    SAVE    PRINTOUT  SAVE
 ---------------------------------------------------
     0         0       1       1       0       1
 UBUDSVU SAVING "         STORAGE" ON UNIT  50 AT TIME STEP     10, STRESS PERIOD     20
 UBUDSV SAVING "     CLN STORAGE" ON UNIT 144 AT TIME STEP     10, STRESS PERIOD      20
 UBUDSVU SAVING "   CONSTANT HEAD" ON UNIT  50 AT TIME STEP     10, STRESS PERIOD     20
 UBUDSVU SAVING "   FLOW JA FACE " ON UNIT  50 AT TIME STEP     10, STRESS PERIOD     20
 UBUDSVU SAVING "             CLN" ON UNIT  50 AT TIME STEP     10, STRESS PERIOD     20
 UBUDSVU SAVING "  CLN CONST HEAD" ON UNIT 144 AT TIME STEP     10, STRESS PERIOD     20
 UBUDSVU SAVING "   FLOW CLN FACE" ON UNIT 144 AT TIME STEP     10, STRESS PERIOD     20
 UBUDSVU SAVING "             GWF" ON UNIT 144 AT TIME STEP     10, STRESS PERIOD     20
 UBUDSVU SAVING "           WELLS" ON UNIT  50 AT TIME STEP     10, STRESS PERIOD     20
 UBUDSVU SAVING "           WELLS" ON UNIT 144 AT TIME STEP     10, STRESS PERIOD     20

 HEAD WILL BE SAVED ON UNIT       30 AT END OF TIME STEP       10, STRESS PERIOD       20

 DRAWDOWN WILL BE SAVED ON UNIT   31 AT END OF TIME STEP  10, STRESS PERIOD   20

 CLN HEAD WILL BE SAVED ON UNIT   77 AT END OF TIME STEP  10, STRESS PERIOD   20
1
  VOLUMETRIC BUDGET FOR ENTIRE MODEL AT END OF TIME STEP      10 IN STRESS PERIOD      20
  ---------------------------------------------------------------------------------------

     CUMULATIVE VOLUMES      L**3       RATES FOR THIS TIME STEP      L**3/T
     ------------------                 ------------------------

           IN:                                      IN:
           ---                                      ---
             STORAGE =        2999.4100               STORAGE =           4.9972
         CLN STORAGE =           0.5899           CLN STORAGE =       2.8362E-03
       CONSTANT HEAD =           0.0000         CONSTANT HEAD =           0.0000
      CLN CONST HEAD =           0.0000        CLN CONST HEAD =           0.0000
               WELLS =           0.0000                 WELLS =           0.0000

            TOTAL IN =        2999.9999              TOTAL IN =           5.0000

          OUT:                                     OUT:
          ----                                     ----
             STORAGE =           0.0000               STORAGE =           0.0000
         CLN STORAGE =           0.0000           CLN STORAGE =           0.0000
       CONSTANT HEAD =           0.0000         CONSTANT HEAD =           0.0000
      CLN CONST HEAD =           0.0000        CLN CONST HEAD =           0.0000
               WELLS =        2999.9999                 WELLS =           5.0000

           TOTAL OUT =        2999.9999             TOTAL OUT =           5.0000

            IN - OUT =       2.3001E-05              IN - OUT =       1.6444E-08

 PERCENT DISCREPANCY =           0.00     PERCENT DISCREPANCY =           0.00






          TIME SUMMARY AT END OF TIME STEP        10 IN STRESS PERIOD        20
                    SECONDS     MINUTES      HOURS       DAYS        YEARS
                    -----------------------------------------------------------
   TIME STEP LENGTH 5.15209E+05  8586.8      143.11      5.9631     1.63260E-02
 STRESS PERIOD TIME 2.59200E+06  43200.      720.00      30.000     8.21355E-02
         TOTAL TIME 5.18400E+07 8.64000E+05  14400.      600.00      1.6427    
1
 ------------------------------------------------------------------------------------------------------------
 
 SOLVING FOR TRANSPORT 

 ------------------------------------------------------------------------------------------------------------------------
     1 CALLS TO SPARSE MATRIX SOLVER PACKAGE IN TRANSPORT TIME STEP      10 STRESS PERIOD      20 SPECIES  1

 TOTAL OF       1OUTER ITERATIONS
  MAXIMUM CHANGE FOR EACH ITERATION:
   MAX. CHANGE        NODE  MAX. CHANGE        NODE  MAX. CHANGE        NODE  MAX. CHANGE        NODE  MAX. CHANGE        NODE
 ------------------------------------------------------------------------------------------------------------------------------------
  -0.43741E-10,        191

  MAXIMUM CHANGE FOR CLN NODE AT EACH ITERATION:
   MAX. CHANGE    CLN-CELL  MAX. CHANGE    CLN-CELL  MAX. CHANGE    CLN-CELL  MAX. CHANGE    CLN-CELL  MAX. CHANGE    CLN-CELL
 ------------------------------------------------------------------------------------------------------------------------------------
  -0.42371E-08,          1
     TRANSPORT SOLUTION COMPLETE FOR COMPONENT SPECIES NUMBER    1
     ------------------------------------------------------------
 UBUDSVU SAVING "    MASS STORAGE" ON UNIT 145 AT TIME STEP     10, STRESS PERIOD     20
 UBUDSVU SAVING "CLN MASS STORAGE" ON UNIT 145 AT TIME STEP     10, STRESS PERIOD     20
 UBUDSVU SAVING "CNST H MASS FLUX" ON UNIT 145 AT TIME STEP     10, STRESS PERIOD     20
 UBUDSVU SAVING "  WELL MASS FLUX" ON UNIT 145 AT TIME STEP     10, STRESS PERIOD     20

 TRANSPORT SOLUTION COMPLETE FOR ALL SPECIES, SORTING OUTPUT FOR CONCENTRATIONS AND MASS BALANCE
 ----------------------------------------------------------------------------------------------------
     TRANSPORT OUTPUT FOR COMPONENT SPECIES NUMBER    1
     ------------------------------------------------------------

 CONC WILL BE SAVED ON UNIT  132 AT END OF TIME STEP       10, STRESS PERIOD       20

 CLN CONC WILL BE SAVED ON UNIT  188 AT END OF TIME STEP  10, STRESS PERIOD   20
1
  VOLUMETRIC BUDGET FOR ENTIRE MODEL AT END OF TIME STEP      10 IN STRESS PERIOD      20
  ---------------------------------------------------------------------------------------

     CUMULATIVE VOLUMES      L**3       RATES FOR THIS TIME STEP      L**3/T
     ------------------                 ------------------------

           IN:                                      IN:
           ---                                      ---
        MASS STORAGE =         300.0000          MASS STORAGE =           0.5000
    CNST H MASS FLUX =           0.0000      CNST H MASS FLUX =           0.0000
      WELL MASS FLUX =           0.0000        WELL MASS FLUX =           0.0000

            TOTAL IN =         300.0000              TOTAL IN =           0.5000

          OUT:                                     OUT:
          ----                                     ----
        MASS STORAGE =           0.2827          MASS STORAGE =       4.6063E-10
    CNST H MASS FLUX =           0.0000      CNST H MASS FLUX =           0.0000
      WELL MASS FLUX =         299.7173        WELL MASS FLUX =           0.5000

           TOTAL OUT =         300.0000             TOTAL OUT =           0.5000

            IN - OUT =       5.0517E-10              IN - OUT =      -4.6063E-10

 PERCENT DISCREPANCY =           0.00     PERCENT DISCREPANCY =          -0.00






          TIME SUMMARY AT END OF TIME STEP        10 IN STRESS PERIOD        20
                    SECONDS     MINUTES      HOURS       DAYS        YEARS
                    -----------------------------------------------------------
   TIME STEP LENGTH 5.15209E+05  8586.8      143.11      5.9631     1.63260E-02
 STRESS PERIOD TIME 2.59200E+06  43200.      720.00      30.000     8.21355E-02
         TOTAL TIME 5.18400E+07 8.64000E+05  14400.      600.00      1.6427    
1

 Run end date and time (yyyy/mm/dd hh:mm:ss): 2021/01/02 18:54:13
 Elapsed run time:  1.141 Seconds

